version 2
run General-0-20231115-13:08:55-26372
attr configname General
attr datetime 20231115-13:08:55
attr experiment General
attr inifile omnetpp.ini
attr iterationvars ""
attr iterationvars2 $repetition=0
attr measurement ""
attr network Scenario
attr processid 26372
attr repetition 0
attr replication #0
attr resultdir results
attr runnumber 0
attr seedset 0

scalar Scenario.radioMedium.propagation 	"Arrival computation count" 	7590
scalar Scenario.radioMedium 	"transmission count" 	253
scalar Scenario.radioMedium 	"radio frame send count" 	7590
scalar Scenario.radioMedium 	"reception computation count" 	7590
scalar Scenario.radioMedium 	"interference computation count" 	18391
scalar Scenario.radioMedium 	"reception decision computation count" 	4750
scalar Scenario.radioMedium 	"listening decision computation count" 	6051
scalar Scenario.radioMedium 	"reception cache hit" 	93.450855530532
attr unit  %
scalar Scenario.radioMedium 	"interference cache hit" 	66.666666666667
attr unit  %
scalar Scenario.radioMedium 	"noise cache hit" 	0
attr unit  %
scalar Scenario.radioMedium 	"snir cache hit" 	50
attr unit  %
scalar Scenario.radioMedium 	"reception decision cache hit" 	50
attr unit  %
scalar Scenario.radioMedium 	"reception result cache hit" 	0
attr unit  %
scalar Scenario.UAV[0].networkLayer.arp 	sentReply:count 	0
attr title  "ARP replies sent, count"
scalar Scenario.UAV[0].networkLayer.arp 	sentReq:count 	4
attr title  "ARP request sent, count"
scalar Scenario.UAV[0].networkLayer.arp 	failedARPResolution:count 	1
attr title  "ARP failed resolutions, count"
scalar Scenario.UAV[0].networkLayer.arp 	completedARPResolution:count 	1
attr title  "ARP completed resolutions, count"
scalar Scenario.UAV[0].networkLayer.arp 	initiatedARPResolution:count 	2
attr title  "ARP initiated resolutions, count"
scalar Scenario.UAV[0].lo0.lo 	droppedPkBitError:count 	0
attr interpolationmode  none
attr source  dropPkBitError
attr title  "packets dropped/bit error, count"
scalar Scenario.UAV[0].lo0.lo 	droppedPkBitError:sum(packetBytes) 	0
attr interpolationmode  none
attr source  dropPkBitError
attr title  "packets dropped/bit error, sum(packetBytes)"
scalar Scenario.UAV[0].lo0.lo 	rcvdPkFromHL:count 	0
attr interpolationmode  none
attr source  packetReceivedFromUpper
attr title  "packets received from higher layer, count"
scalar Scenario.UAV[0].lo0.lo 	rcvdPkFromHL:sum(packetBytes) 	0
attr interpolationmode  none
attr source  packetReceivedFromUpper
attr title  "packets received from higher layer, sum(packetBytes)"
scalar Scenario.UAV[0].lo0.lo 	passedUpPk:count 	0
attr interpolationmode  none
attr source  packetSentToUpper
attr title  "packets passed to higher layer, count"
scalar Scenario.UAV[0].lo0.lo 	passedUpPk:sum(packetBytes) 	0
attr interpolationmode  none
attr source  packetSentToUpper
attr title  "packets passed to higher layer, sum(packetBytes)"
scalar Scenario.UAV[0].wlan[0].queue 	queueLength:max 	0
attr interpolationmode  sample-hold
attr title  "queue length, max"
scalar Scenario.UAV[0].wlan[0].queue 	queueLength:timeavg 	0
attr interpolationmode  sample-hold
attr title  "queue length, timeavg"
statistic Scenario.UAV[0].wlan[0].queue 	queueingTime:histogram
field count 8
field mean 0
field stddev 0
field sum 0
field sqrsum 0
field min 0
field max 0
attr interpolationmode  none
attr title  "queueing time, histogram"
bin	-INF	0
bin	-0.5	0
bin	-0.46666666666667	0
bin	-0.43333333333333	0
bin	-0.4	0
bin	-0.36666666666667	0
bin	-0.33333333333333	0
bin	-0.3	0
bin	-0.26666666666667	0
bin	-0.23333333333333	0
bin	-0.2	0
bin	-0.16666666666667	0
bin	-0.13333333333333	0
bin	-0.1	0
bin	-0.066666666666667	0
bin	-0.033333333333333	0
bin	-6.9388939039072e-018	8
bin	0.033333333333333	0
bin	0.066666666666667	0
bin	0.1	0
bin	0.13333333333333	0
bin	0.16666666666667	0
bin	0.2	0
bin	0.23333333333333	0
bin	0.26666666666667	0
bin	0.3	0
bin	0.33333333333333	0
bin	0.36666666666667	0
bin	0.4	0
bin	0.43333333333333	0
bin	0.46666666666667	0
bin	0.5	0
scalar Scenario.UAV[0].wlan[0].queue 	dropPk:count 	0
attr interpolationmode  none
attr source  dropPkByQueue
attr title  "dropped packets, count"
scalar Scenario.UAV[0].wlan[0].queue 	dropPk:sum(packetBytes) 	0
attr interpolationmode  none
attr source  dropPkByQueue
attr title  "dropped packets, sum(packetBytes)"
scalar Scenario.UAV[0].wlan[0].queue 	rcvdPk:count 	8
attr interpolationmode  none
attr title  "received packets, count"
scalar Scenario.UAV[0].wlan[0].queue 	rcvdPk:sum(packetBytes) 	624
attr interpolationmode  none
attr title  "received packets, sum(packetBytes)"
scalar Scenario.UAV[0].wlan[0].mac 	droppedPkNotForUs:count 	128
attr interpolationmode  none
attr source  dropPkNotForUs
attr title  "packets dropped/not for us, count"
scalar Scenario.UAV[0].wlan[0].mac 	droppedPkNotForUs:sum(packetBytes) 	16044
attr interpolationmode  none
attr source  dropPkNotForUs
attr title  "packets dropped/not for us, sum(packetBytes)"
scalar Scenario.UAV[0].wlan[0].mac 	rcvdPkFromHL:count 	8
attr interpolationmode  none
attr source  packetReceivedFromUpper
attr title  "packets received from higher layer, count"
scalar Scenario.UAV[0].wlan[0].mac 	rcvdPkFromHL:sum(packetBytes) 	624
attr interpolationmode  none
attr source  packetReceivedFromUpper
attr title  "packets received from higher layer, sum(packetBytes)"
scalar Scenario.UAV[0].wlan[0].mac 	passedUpPk:count 	28
attr interpolationmode  none
attr source  packetSentToUpper
attr title  "packets passed to higher layer, count"
scalar Scenario.UAV[0].wlan[0].mac 	passedUpPk:sum(packetBytes) 	784
attr interpolationmode  none
attr source  packetSentToUpper
attr title  "packets passed to higher layer, sum(packetBytes)"
scalar Scenario.UAV[0].wlan[0].mac 	rcvdPkFromLL:count 	156
attr interpolationmode  none
attr source  packetReceivedFromLower
attr title  "packets received from lower layer, count"
scalar Scenario.UAV[0].wlan[0].mac 	rcvdPkFromLL:sum(packetBytes) 	17388
attr interpolationmode  none
attr source  packetReceivedFromLower
attr title  "packets received from lower layer, sum(packetBytes)"
scalar Scenario.UAV[0].wlan[0].mac 	sentDownPk:count 	8
attr interpolationmode  none
attr source  packetSentToLower
attr title  "packets sent to lower layer, count"
scalar Scenario.UAV[0].wlan[0].mac 	sentDownPk:sum(packetBytes) 	784
attr interpolationmode  none
attr source  packetSentToLower
attr title  "packets sent to lower layer, sum(packetBytes)"
statistic Scenario.UAV[0].wlan[0].radio 	symbolErrorRate:histogram
field count 156
field mean 0.019230769230769
field stddev 0.137777466492
field sum 3
field sqrsum 3
field min 0
field max 1
attr source  symbolErrorRate
attr title  "Symbol error rate, histogram"
bin	-INF	0
bin	-1	0
bin	0	153
bin	1	3
bin	2	0
statistic Scenario.UAV[0].wlan[0].radio 	bitErrorRate:histogram
field count 156
field mean 0.019230769230769
field stddev 0.137777466492
field sum 3
field sqrsum 3
field min 0
field max 1
attr source  bitErrorRate
attr title  "Bit error rate, histogram"
bin	-INF	0
bin	-1	0
bin	0	153
bin	1	3
bin	2	0
statistic Scenario.UAV[0].wlan[0].radio 	packetErrorRate:histogram
field count 156
field mean 0.019230769230769
field stddev 0.137777466492
field sum 3
field sqrsum 3
field min 0
field max 1
attr source  packetErrorRate
attr title  "Packet error rate, histogram"
bin	-INF	0
bin	-1	0
bin	0	153
bin	1	3
bin	2	0
statistic Scenario.UAV[0].wlan[0].radio 	minSNIR:histogram
field count 156
field mean nan
field stddev nan
field sum nan
field sqrsum nan
field min nan
field max nan
attr source  minSNIR
attr title  "Min SNIR, histogram"
bin	-INF	156
bin	nan	0
bin	nan	0
bin	nan	0
bin	nan	0
bin	nan	0
bin	nan	0
bin	nan	0
bin	nan	0
bin	nan	0
bin	nan	0
bin	nan	0
bin	nan	0
bin	nan	0
bin	nan	0
bin	nan	0
bin	nan	0
bin	nan	0
bin	nan	0
bin	nan	0
bin	nan	0
bin	nan	0
bin	nan	0
bin	nan	0
bin	nan	0
bin	nan	0
bin	nan	0
bin	nan	0
bin	nan	0
bin	nan	0
bin	nan	0
bin	nan	0
scalar Scenario.UAV[0].wlan[0].radio 	transmissionState:count 	17
attr interpolationmode  sample-hold
attr source  transmissionStateChanged
attr title  "Radio transmission state, count"
scalar Scenario.UAV[0].wlan[0].radio 	receptionState:count 	313
attr interpolationmode  sample-hold
attr source  receptionStateChanged
attr title  "Radio reception state, count"
scalar Scenario.UAV[0].wlan[0].radio 	radioMode:count 	2
attr interpolationmode  sample-hold
attr source  radioModeChanged
attr title  "Radio mode, count"
scalar Scenario.UAV[0].udpApp[0] 	"packets sent" 	5
scalar Scenario.UAV[0].udpApp[0] 	"packets received" 	0
scalar Scenario.UAV[0].udpApp[0] 	sentPk:count 	5
attr interpolationmode  none
attr source  sentPk
attr title  "packets sent, count"
scalar Scenario.UAV[0].udpApp[0] 	sentPk:sum(packetBytes) 	500
attr interpolationmode  none
attr source  sentPk
attr title  "packets sent, sum(packetBytes)"
scalar Scenario.UAV[0].udpApp[0] 	rcvdPk:count 	0
attr interpolationmode  none
attr source  rcvdPk
attr title  "packets received, count"
scalar Scenario.UAV[0].udpApp[0] 	rcvdPk:sum(packetBytes) 	0
attr interpolationmode  none
attr source  rcvdPk
attr title  "packets received, sum(packetBytes)"
statistic Scenario.UAV[0].udpApp[0] 	rcvdPkLifetime:stats
field count 0
field mean nan
field stddev nan
field sum 0
field sqrsum 0
field min nan
field max nan
attr interpolationmode  none
attr source  messageAge(rcvdPk)
attr title  "received packet lifetime, stats"
attr unit  s
scalar Scenario.UAV[0].udp 	droppedPkBadChecksum:count 	0
attr interpolationmode  none
attr title  "packets dropped (checksum error), count"
scalar Scenario.UAV[0].udp 	droppedPkWrongPort:count 	0
attr interpolationmode  none
attr title  "packets dropped (wrong port), count"
scalar Scenario.UAV[0].udp 	passedUpPk:count 	0
attr interpolationmode  none
attr title  "packets passed up, count"
scalar Scenario.UAV[0].udp 	sentPk:count 	5
attr interpolationmode  none
attr source  sentPk
attr title  "packets sent, count"
scalar Scenario.UAV[0].udp 	sentPk:sum(packetBytes) 	540
attr interpolationmode  none
attr source  sentPk
attr title  "packets sent, sum(packetBytes)"
scalar Scenario.UAV[0].udp 	rcvdPk:count 	0
attr interpolationmode  none
attr source  rcvdPk
attr title  "packets received, count"
scalar Scenario.UAV[0].udp 	rcvdPk:sum(packetBytes) 	0
attr interpolationmode  none
attr source  rcvdPk
attr title  "packets received, sum(packetBytes)"
scalar Scenario.UAV[1].networkLayer.arp 	sentReply:count 	0
attr title  "ARP replies sent, count"
scalar Scenario.UAV[1].networkLayer.arp 	sentReq:count 	4
attr title  "ARP request sent, count"
scalar Scenario.UAV[1].networkLayer.arp 	failedARPResolution:count 	1
attr title  "ARP failed resolutions, count"
scalar Scenario.UAV[1].networkLayer.arp 	completedARPResolution:count 	1
attr title  "ARP completed resolutions, count"
scalar Scenario.UAV[1].networkLayer.arp 	initiatedARPResolution:count 	2
attr title  "ARP initiated resolutions, count"
scalar Scenario.UAV[1].lo0.lo 	droppedPkBitError:count 	0
attr interpolationmode  none
attr source  dropPkBitError
attr title  "packets dropped/bit error, count"
scalar Scenario.UAV[1].lo0.lo 	droppedPkBitError:sum(packetBytes) 	0
attr interpolationmode  none
attr source  dropPkBitError
attr title  "packets dropped/bit error, sum(packetBytes)"
scalar Scenario.UAV[1].lo0.lo 	rcvdPkFromHL:count 	0
attr interpolationmode  none
attr source  packetReceivedFromUpper
attr title  "packets received from higher layer, count"
scalar Scenario.UAV[1].lo0.lo 	rcvdPkFromHL:sum(packetBytes) 	0
attr interpolationmode  none
attr source  packetReceivedFromUpper
attr title  "packets received from higher layer, sum(packetBytes)"
scalar Scenario.UAV[1].lo0.lo 	passedUpPk:count 	0
attr interpolationmode  none
attr source  packetSentToUpper
attr title  "packets passed to higher layer, count"
scalar Scenario.UAV[1].lo0.lo 	passedUpPk:sum(packetBytes) 	0
attr interpolationmode  none
attr source  packetSentToUpper
attr title  "packets passed to higher layer, sum(packetBytes)"
scalar Scenario.UAV[1].wlan[0].queue 	queueLength:max 	0
attr interpolationmode  sample-hold
attr title  "queue length, max"
scalar Scenario.UAV[1].wlan[0].queue 	queueLength:timeavg 	0
attr interpolationmode  sample-hold
attr title  "queue length, timeavg"
statistic Scenario.UAV[1].wlan[0].queue 	queueingTime:histogram
field count 7
field mean 0
field stddev 0
field sum 0
field sqrsum 0
field min 0
field max 0
attr interpolationmode  none
attr title  "queueing time, histogram"
bin	-INF	0
bin	-0.5	0
bin	-0.46666666666667	0
bin	-0.43333333333333	0
bin	-0.4	0
bin	-0.36666666666667	0
bin	-0.33333333333333	0
bin	-0.3	0
bin	-0.26666666666667	0
bin	-0.23333333333333	0
bin	-0.2	0
bin	-0.16666666666667	0
bin	-0.13333333333333	0
bin	-0.1	0
bin	-0.066666666666667	0
bin	-0.033333333333333	0
bin	-6.9388939039072e-018	7
bin	0.033333333333333	0
bin	0.066666666666667	0
bin	0.1	0
bin	0.13333333333333	0
bin	0.16666666666667	0
bin	0.2	0
bin	0.23333333333333	0
bin	0.26666666666667	0
bin	0.3	0
bin	0.33333333333333	0
bin	0.36666666666667	0
bin	0.4	0
bin	0.43333333333333	0
bin	0.46666666666667	0
bin	0.5	0
scalar Scenario.UAV[1].wlan[0].queue 	dropPk:count 	0
attr interpolationmode  none
attr source  dropPkByQueue
attr title  "dropped packets, count"
scalar Scenario.UAV[1].wlan[0].queue 	dropPk:sum(packetBytes) 	0
attr interpolationmode  none
attr source  dropPkByQueue
attr title  "dropped packets, sum(packetBytes)"
scalar Scenario.UAV[1].wlan[0].queue 	rcvdPk:count 	7
attr interpolationmode  none
attr title  "received packets, count"
scalar Scenario.UAV[1].wlan[0].queue 	rcvdPk:sum(packetBytes) 	496
attr interpolationmode  none
attr title  "received packets, sum(packetBytes)"
scalar Scenario.UAV[1].wlan[0].mac 	droppedPkNotForUs:count 	127
attr interpolationmode  none
attr source  dropPkNotForUs
attr title  "packets dropped/not for us, count"
scalar Scenario.UAV[1].wlan[0].mac 	droppedPkNotForUs:sum(packetBytes) 	15896
attr interpolationmode  none
attr source  dropPkNotForUs
attr title  "packets dropped/not for us, sum(packetBytes)"
scalar Scenario.UAV[1].wlan[0].mac 	rcvdPkFromHL:count 	7
attr interpolationmode  none
attr source  packetReceivedFromUpper
attr title  "packets received from higher layer, count"
scalar Scenario.UAV[1].wlan[0].mac 	rcvdPkFromHL:sum(packetBytes) 	496
attr interpolationmode  none
attr source  packetReceivedFromUpper
attr title  "packets received from higher layer, sum(packetBytes)"
scalar Scenario.UAV[1].wlan[0].mac 	passedUpPk:count 	30
attr interpolationmode  none
attr source  packetSentToUpper
attr title  "packets passed to higher layer, count"
scalar Scenario.UAV[1].wlan[0].mac 	passedUpPk:sum(packetBytes) 	840
attr interpolationmode  none
attr source  packetSentToUpper
attr title  "packets passed to higher layer, sum(packetBytes)"
scalar Scenario.UAV[1].wlan[0].mac 	rcvdPkFromLL:count 	157
attr interpolationmode  none
attr source  packetReceivedFromLower
attr title  "packets received from lower layer, count"
scalar Scenario.UAV[1].wlan[0].mac 	rcvdPkFromLL:sum(packetBytes) 	17336
attr interpolationmode  none
attr source  packetReceivedFromLower
attr title  "packets received from lower layer, sum(packetBytes)"
scalar Scenario.UAV[1].wlan[0].mac 	sentDownPk:count 	7
attr interpolationmode  none
attr source  packetSentToLower
attr title  "packets sent to lower layer, count"
scalar Scenario.UAV[1].wlan[0].mac 	sentDownPk:sum(packetBytes) 	636
attr interpolationmode  none
attr source  packetSentToLower
attr title  "packets sent to lower layer, sum(packetBytes)"
statistic Scenario.UAV[1].wlan[0].radio 	symbolErrorRate:histogram
field count 157
field mean 0.019108280254777
field stddev 0.1373437377633
field sum 3
field sqrsum 3
field min 0
field max 1
attr source  symbolErrorRate
attr title  "Symbol error rate, histogram"
bin	-INF	0
bin	-1	0
bin	0	154
bin	1	3
bin	2	0
statistic Scenario.UAV[1].wlan[0].radio 	bitErrorRate:histogram
field count 157
field mean 0.019108280254777
field stddev 0.1373437377633
field sum 3
field sqrsum 3
field min 0
field max 1
attr source  bitErrorRate
attr title  "Bit error rate, histogram"
bin	-INF	0
bin	-1	0
bin	0	154
bin	1	3
bin	2	0
statistic Scenario.UAV[1].wlan[0].radio 	packetErrorRate:histogram
field count 157
field mean 0.019108280254777
field stddev 0.1373437377633
field sum 3
field sqrsum 3
field min 0
field max 1
attr source  packetErrorRate
attr title  "Packet error rate, histogram"
bin	-INF	0
bin	-1	0
bin	0	154
bin	1	3
bin	2	0
statistic Scenario.UAV[1].wlan[0].radio 	minSNIR:histogram
field count 157
field mean nan
field stddev nan
field sum nan
field sqrsum nan
field min nan
field max nan
attr source  minSNIR
attr title  "Min SNIR, histogram"
bin	-INF	157
bin	nan	0
bin	nan	0
bin	nan	0
bin	nan	0
bin	nan	0
bin	nan	0
bin	nan	0
bin	nan	0
bin	nan	0
bin	nan	0
bin	nan	0
bin	nan	0
bin	nan	0
bin	nan	0
bin	nan	0
bin	nan	0
bin	nan	0
bin	nan	0
bin	nan	0
bin	nan	0
bin	nan	0
bin	nan	0
bin	nan	0
bin	nan	0
bin	nan	0
bin	nan	0
bin	nan	0
bin	nan	0
bin	nan	0
bin	nan	0
bin	nan	0
scalar Scenario.UAV[1].wlan[0].radio 	transmissionState:count 	15
attr interpolationmode  sample-hold
attr source  transmissionStateChanged
attr title  "Radio transmission state, count"
scalar Scenario.UAV[1].wlan[0].radio 	receptionState:count 	315
attr interpolationmode  sample-hold
attr source  receptionStateChanged
attr title  "Radio reception state, count"
scalar Scenario.UAV[1].wlan[0].radio 	radioMode:count 	2
attr interpolationmode  sample-hold
attr source  radioModeChanged
attr title  "Radio mode, count"
scalar Scenario.UAV[1].udpApp[0] 	"packets sent" 	4
scalar Scenario.UAV[1].udpApp[0] 	"packets received" 	0
scalar Scenario.UAV[1].udpApp[0] 	sentPk:count 	4
attr interpolationmode  none
attr source  sentPk
attr title  "packets sent, count"
scalar Scenario.UAV[1].udpApp[0] 	sentPk:sum(packetBytes) 	400
attr interpolationmode  none
attr source  sentPk
attr title  "packets sent, sum(packetBytes)"
scalar Scenario.UAV[1].udpApp[0] 	rcvdPk:count 	0
attr interpolationmode  none
attr source  rcvdPk
attr title  "packets received, count"
scalar Scenario.UAV[1].udpApp[0] 	rcvdPk:sum(packetBytes) 	0
attr interpolationmode  none
attr source  rcvdPk
attr title  "packets received, sum(packetBytes)"
statistic Scenario.UAV[1].udpApp[0] 	rcvdPkLifetime:stats
field count 0
field mean nan
field stddev nan
field sum 0
field sqrsum 0
field min nan
field max nan
attr interpolationmode  none
attr source  messageAge(rcvdPk)
attr title  "received packet lifetime, stats"
attr unit  s
scalar Scenario.UAV[1].udp 	droppedPkBadChecksum:count 	0
attr interpolationmode  none
attr title  "packets dropped (checksum error), count"
scalar Scenario.UAV[1].udp 	droppedPkWrongPort:count 	0
attr interpolationmode  none
attr title  "packets dropped (wrong port), count"
scalar Scenario.UAV[1].udp 	passedUpPk:count 	0
attr interpolationmode  none
attr title  "packets passed up, count"
scalar Scenario.UAV[1].udp 	sentPk:count 	4
attr interpolationmode  none
attr source  sentPk
attr title  "packets sent, count"
scalar Scenario.UAV[1].udp 	sentPk:sum(packetBytes) 	432
attr interpolationmode  none
attr source  sentPk
attr title  "packets sent, sum(packetBytes)"
scalar Scenario.UAV[1].udp 	rcvdPk:count 	0
attr interpolationmode  none
attr source  rcvdPk
attr title  "packets received, count"
scalar Scenario.UAV[1].udp 	rcvdPk:sum(packetBytes) 	0
attr interpolationmode  none
attr source  rcvdPk
attr title  "packets received, sum(packetBytes)"
scalar Scenario.UAV[2].networkLayer.arp 	sentReply:count 	0
attr title  "ARP replies sent, count"
scalar Scenario.UAV[2].networkLayer.arp 	sentReq:count 	4
attr title  "ARP request sent, count"
scalar Scenario.UAV[2].networkLayer.arp 	failedARPResolution:count 	1
attr title  "ARP failed resolutions, count"
scalar Scenario.UAV[2].networkLayer.arp 	completedARPResolution:count 	1
attr title  "ARP completed resolutions, count"
scalar Scenario.UAV[2].networkLayer.arp 	initiatedARPResolution:count 	2
attr title  "ARP initiated resolutions, count"
scalar Scenario.UAV[2].lo0.lo 	droppedPkBitError:count 	0
attr interpolationmode  none
attr source  dropPkBitError
attr title  "packets dropped/bit error, count"
scalar Scenario.UAV[2].lo0.lo 	droppedPkBitError:sum(packetBytes) 	0
attr interpolationmode  none
attr source  dropPkBitError
attr title  "packets dropped/bit error, sum(packetBytes)"
scalar Scenario.UAV[2].lo0.lo 	rcvdPkFromHL:count 	0
attr interpolationmode  none
attr source  packetReceivedFromUpper
attr title  "packets received from higher layer, count"
scalar Scenario.UAV[2].lo0.lo 	rcvdPkFromHL:sum(packetBytes) 	0
attr interpolationmode  none
attr source  packetReceivedFromUpper
attr title  "packets received from higher layer, sum(packetBytes)"
scalar Scenario.UAV[2].lo0.lo 	passedUpPk:count 	0
attr interpolationmode  none
attr source  packetSentToUpper
attr title  "packets passed to higher layer, count"
scalar Scenario.UAV[2].lo0.lo 	passedUpPk:sum(packetBytes) 	0
attr interpolationmode  none
attr source  packetSentToUpper
attr title  "packets passed to higher layer, sum(packetBytes)"
scalar Scenario.UAV[2].wlan[0].queue 	queueLength:max 	0
attr interpolationmode  sample-hold
attr title  "queue length, max"
scalar Scenario.UAV[2].wlan[0].queue 	queueLength:timeavg 	0
attr interpolationmode  sample-hold
attr title  "queue length, timeavg"
statistic Scenario.UAV[2].wlan[0].queue 	queueingTime:histogram
field count 7
field mean 0
field stddev 0
field sum 0
field sqrsum 0
field min 0
field max 0
attr interpolationmode  none
attr title  "queueing time, histogram"
bin	-INF	0
bin	-0.5	0
bin	-0.46666666666667	0
bin	-0.43333333333333	0
bin	-0.4	0
bin	-0.36666666666667	0
bin	-0.33333333333333	0
bin	-0.3	0
bin	-0.26666666666667	0
bin	-0.23333333333333	0
bin	-0.2	0
bin	-0.16666666666667	0
bin	-0.13333333333333	0
bin	-0.1	0
bin	-0.066666666666667	0
bin	-0.033333333333333	0
bin	-6.9388939039072e-018	7
bin	0.033333333333333	0
bin	0.066666666666667	0
bin	0.1	0
bin	0.13333333333333	0
bin	0.16666666666667	0
bin	0.2	0
bin	0.23333333333333	0
bin	0.26666666666667	0
bin	0.3	0
bin	0.33333333333333	0
bin	0.36666666666667	0
bin	0.4	0
bin	0.43333333333333	0
bin	0.46666666666667	0
bin	0.5	0
scalar Scenario.UAV[2].wlan[0].queue 	dropPk:count 	0
attr interpolationmode  none
attr source  dropPkByQueue
attr title  "dropped packets, count"
scalar Scenario.UAV[2].wlan[0].queue 	dropPk:sum(packetBytes) 	0
attr interpolationmode  none
attr source  dropPkByQueue
attr title  "dropped packets, sum(packetBytes)"
scalar Scenario.UAV[2].wlan[0].queue 	rcvdPk:count 	7
attr interpolationmode  none
attr title  "received packets, count"
scalar Scenario.UAV[2].wlan[0].queue 	rcvdPk:sum(packetBytes) 	496
attr interpolationmode  none
attr title  "received packets, sum(packetBytes)"
scalar Scenario.UAV[2].wlan[0].mac 	droppedPkNotForUs:count 	129
attr interpolationmode  none
attr source  dropPkNotForUs
attr title  "packets dropped/not for us, count"
scalar Scenario.UAV[2].wlan[0].mac 	droppedPkNotForUs:sum(packetBytes) 	16192
attr interpolationmode  none
attr source  dropPkNotForUs
attr title  "packets dropped/not for us, sum(packetBytes)"
scalar Scenario.UAV[2].wlan[0].mac 	rcvdPkFromHL:count 	7
attr interpolationmode  none
attr source  packetReceivedFromUpper
attr title  "packets received from higher layer, count"
scalar Scenario.UAV[2].wlan[0].mac 	rcvdPkFromHL:sum(packetBytes) 	496
attr interpolationmode  none
attr source  packetReceivedFromUpper
attr title  "packets received from higher layer, sum(packetBytes)"
scalar Scenario.UAV[2].wlan[0].mac 	passedUpPk:count 	29
attr interpolationmode  none
attr source  packetSentToUpper
attr title  "packets passed to higher layer, count"
scalar Scenario.UAV[2].wlan[0].mac 	passedUpPk:sum(packetBytes) 	812
attr interpolationmode  none
attr source  packetSentToUpper
attr title  "packets passed to higher layer, sum(packetBytes)"
scalar Scenario.UAV[2].wlan[0].mac 	rcvdPkFromLL:count 	158
attr interpolationmode  none
attr source  packetReceivedFromLower
attr title  "packets received from lower layer, count"
scalar Scenario.UAV[2].wlan[0].mac 	rcvdPkFromLL:sum(packetBytes) 	17584
attr interpolationmode  none
attr source  packetReceivedFromLower
attr title  "packets received from lower layer, sum(packetBytes)"
scalar Scenario.UAV[2].wlan[0].mac 	sentDownPk:count 	7
attr interpolationmode  none
attr source  packetSentToLower
attr title  "packets sent to lower layer, count"
scalar Scenario.UAV[2].wlan[0].mac 	sentDownPk:sum(packetBytes) 	636
attr interpolationmode  none
attr source  packetSentToLower
attr title  "packets sent to lower layer, sum(packetBytes)"
statistic Scenario.UAV[2].wlan[0].radio 	symbolErrorRate:histogram
field count 158
field mean 0.018987341772152
field stddev 0.13691407819104
field sum 3
field sqrsum 3
field min 0
field max 1
attr source  symbolErrorRate
attr title  "Symbol error rate, histogram"
bin	-INF	0
bin	-1	0
bin	0	155
bin	1	3
bin	2	0
statistic Scenario.UAV[2].wlan[0].radio 	bitErrorRate:histogram
field count 158
field mean 0.018987341772152
field stddev 0.13691407819104
field sum 3
field sqrsum 3
field min 0
field max 1
attr source  bitErrorRate
attr title  "Bit error rate, histogram"
bin	-INF	0
bin	-1	0
bin	0	155
bin	1	3
bin	2	0
statistic Scenario.UAV[2].wlan[0].radio 	packetErrorRate:histogram
field count 158
field mean 0.018987341772152
field stddev 0.13691407819104
field sum 3
field sqrsum 3
field min 0
field max 1
attr source  packetErrorRate
attr title  "Packet error rate, histogram"
bin	-INF	0
bin	-1	0
bin	0	155
bin	1	3
bin	2	0
statistic Scenario.UAV[2].wlan[0].radio 	minSNIR:histogram
field count 158
field mean nan
field stddev nan
field sum nan
field sqrsum nan
field min nan
field max nan
attr source  minSNIR
attr title  "Min SNIR, histogram"
bin	-INF	158
bin	nan	0
bin	nan	0
bin	nan	0
bin	nan	0
bin	nan	0
bin	nan	0
bin	nan	0
bin	nan	0
bin	nan	0
bin	nan	0
bin	nan	0
bin	nan	0
bin	nan	0
bin	nan	0
bin	nan	0
bin	nan	0
bin	nan	0
bin	nan	0
bin	nan	0
bin	nan	0
bin	nan	0
bin	nan	0
bin	nan	0
bin	nan	0
bin	nan	0
bin	nan	0
bin	nan	0
bin	nan	0
bin	nan	0
bin	nan	0
bin	nan	0
scalar Scenario.UAV[2].wlan[0].radio 	transmissionState:count 	15
attr interpolationmode  sample-hold
attr source  transmissionStateChanged
attr title  "Radio transmission state, count"
scalar Scenario.UAV[2].wlan[0].radio 	receptionState:count 	317
attr interpolationmode  sample-hold
attr source  receptionStateChanged
attr title  "Radio reception state, count"
scalar Scenario.UAV[2].wlan[0].radio 	radioMode:count 	2
attr interpolationmode  sample-hold
attr source  radioModeChanged
attr title  "Radio mode, count"
scalar Scenario.UAV[2].udpApp[0] 	"packets sent" 	4
scalar Scenario.UAV[2].udpApp[0] 	"packets received" 	0
scalar Scenario.UAV[2].udpApp[0] 	sentPk:count 	4
attr interpolationmode  none
attr source  sentPk
attr title  "packets sent, count"
scalar Scenario.UAV[2].udpApp[0] 	sentPk:sum(packetBytes) 	400
attr interpolationmode  none
attr source  sentPk
attr title  "packets sent, sum(packetBytes)"
scalar Scenario.UAV[2].udpApp[0] 	rcvdPk:count 	0
attr interpolationmode  none
attr source  rcvdPk
attr title  "packets received, count"
scalar Scenario.UAV[2].udpApp[0] 	rcvdPk:sum(packetBytes) 	0
attr interpolationmode  none
attr source  rcvdPk
attr title  "packets received, sum(packetBytes)"
statistic Scenario.UAV[2].udpApp[0] 	rcvdPkLifetime:stats
field count 0
field mean nan
field stddev nan
field sum 0
field sqrsum 0
field min nan
field max nan
attr interpolationmode  none
attr source  messageAge(rcvdPk)
attr title  "received packet lifetime, stats"
attr unit  s
scalar Scenario.UAV[2].udp 	droppedPkBadChecksum:count 	0
attr interpolationmode  none
attr title  "packets dropped (checksum error), count"
scalar Scenario.UAV[2].udp 	droppedPkWrongPort:count 	0
attr interpolationmode  none
attr title  "packets dropped (wrong port), count"
scalar Scenario.UAV[2].udp 	passedUpPk:count 	0
attr interpolationmode  none
attr title  "packets passed up, count"
scalar Scenario.UAV[2].udp 	sentPk:count 	4
attr interpolationmode  none
attr source  sentPk
attr title  "packets sent, count"
scalar Scenario.UAV[2].udp 	sentPk:sum(packetBytes) 	432
attr interpolationmode  none
attr source  sentPk
attr title  "packets sent, sum(packetBytes)"
scalar Scenario.UAV[2].udp 	rcvdPk:count 	0
attr interpolationmode  none
attr source  rcvdPk
attr title  "packets received, count"
scalar Scenario.UAV[2].udp 	rcvdPk:sum(packetBytes) 	0
attr interpolationmode  none
attr source  rcvdPk
attr title  "packets received, sum(packetBytes)"
scalar Scenario.UAV[3].networkLayer.arp 	sentReply:count 	0
attr title  "ARP replies sent, count"
scalar Scenario.UAV[3].networkLayer.arp 	sentReq:count 	4
attr title  "ARP request sent, count"
scalar Scenario.UAV[3].networkLayer.arp 	failedARPResolution:count 	1
attr title  "ARP failed resolutions, count"
scalar Scenario.UAV[3].networkLayer.arp 	completedARPResolution:count 	1
attr title  "ARP completed resolutions, count"
scalar Scenario.UAV[3].networkLayer.arp 	initiatedARPResolution:count 	2
attr title  "ARP initiated resolutions, count"
scalar Scenario.UAV[3].lo0.lo 	droppedPkBitError:count 	0
attr interpolationmode  none
attr source  dropPkBitError
attr title  "packets dropped/bit error, count"
scalar Scenario.UAV[3].lo0.lo 	droppedPkBitError:sum(packetBytes) 	0
attr interpolationmode  none
attr source  dropPkBitError
attr title  "packets dropped/bit error, sum(packetBytes)"
scalar Scenario.UAV[3].lo0.lo 	rcvdPkFromHL:count 	0
attr interpolationmode  none
attr source  packetReceivedFromUpper
attr title  "packets received from higher layer, count"
scalar Scenario.UAV[3].lo0.lo 	rcvdPkFromHL:sum(packetBytes) 	0
attr interpolationmode  none
attr source  packetReceivedFromUpper
attr title  "packets received from higher layer, sum(packetBytes)"
scalar Scenario.UAV[3].lo0.lo 	passedUpPk:count 	0
attr interpolationmode  none
attr source  packetSentToUpper
attr title  "packets passed to higher layer, count"
scalar Scenario.UAV[3].lo0.lo 	passedUpPk:sum(packetBytes) 	0
attr interpolationmode  none
attr source  packetSentToUpper
attr title  "packets passed to higher layer, sum(packetBytes)"
scalar Scenario.UAV[3].wlan[0].queue 	queueLength:max 	0
attr interpolationmode  sample-hold
attr title  "queue length, max"
scalar Scenario.UAV[3].wlan[0].queue 	queueLength:timeavg 	0
attr interpolationmode  sample-hold
attr title  "queue length, timeavg"
statistic Scenario.UAV[3].wlan[0].queue 	queueingTime:histogram
field count 8
field mean 0
field stddev 0
field sum 0
field sqrsum 0
field min 0
field max 0
attr interpolationmode  none
attr title  "queueing time, histogram"
bin	-INF	0
bin	-0.5	0
bin	-0.46666666666667	0
bin	-0.43333333333333	0
bin	-0.4	0
bin	-0.36666666666667	0
bin	-0.33333333333333	0
bin	-0.3	0
bin	-0.26666666666667	0
bin	-0.23333333333333	0
bin	-0.2	0
bin	-0.16666666666667	0
bin	-0.13333333333333	0
bin	-0.1	0
bin	-0.066666666666667	0
bin	-0.033333333333333	0
bin	-6.9388939039072e-018	8
bin	0.033333333333333	0
bin	0.066666666666667	0
bin	0.1	0
bin	0.13333333333333	0
bin	0.16666666666667	0
bin	0.2	0
bin	0.23333333333333	0
bin	0.26666666666667	0
bin	0.3	0
bin	0.33333333333333	0
bin	0.36666666666667	0
bin	0.4	0
bin	0.43333333333333	0
bin	0.46666666666667	0
bin	0.5	0
scalar Scenario.UAV[3].wlan[0].queue 	dropPk:count 	0
attr interpolationmode  none
attr source  dropPkByQueue
attr title  "dropped packets, count"
scalar Scenario.UAV[3].wlan[0].queue 	dropPk:sum(packetBytes) 	0
attr interpolationmode  none
attr source  dropPkByQueue
attr title  "dropped packets, sum(packetBytes)"
scalar Scenario.UAV[3].wlan[0].queue 	rcvdPk:count 	8
attr interpolationmode  none
attr title  "received packets, count"
scalar Scenario.UAV[3].wlan[0].queue 	rcvdPk:sum(packetBytes) 	624
attr interpolationmode  none
attr title  "received packets, sum(packetBytes)"
scalar Scenario.UAV[3].wlan[0].mac 	droppedPkNotForUs:count 	118
attr interpolationmode  none
attr source  dropPkNotForUs
attr title  "packets dropped/not for us, count"
scalar Scenario.UAV[3].wlan[0].mac 	droppedPkNotForUs:sum(packetBytes) 	14764
attr interpolationmode  none
attr source  dropPkNotForUs
attr title  "packets dropped/not for us, sum(packetBytes)"
scalar Scenario.UAV[3].wlan[0].mac 	rcvdPkFromHL:count 	8
attr interpolationmode  none
attr source  packetReceivedFromUpper
attr title  "packets received from higher layer, count"
scalar Scenario.UAV[3].wlan[0].mac 	rcvdPkFromHL:sum(packetBytes) 	624
attr interpolationmode  none
attr source  packetReceivedFromUpper
attr title  "packets received from higher layer, sum(packetBytes)"
scalar Scenario.UAV[3].wlan[0].mac 	passedUpPk:count 	27
attr interpolationmode  none
attr source  packetSentToUpper
attr title  "packets passed to higher layer, count"
scalar Scenario.UAV[3].wlan[0].mac 	passedUpPk:sum(packetBytes) 	756
attr interpolationmode  none
attr source  packetSentToUpper
attr title  "packets passed to higher layer, sum(packetBytes)"
scalar Scenario.UAV[3].wlan[0].mac 	rcvdPkFromLL:count 	145
attr interpolationmode  none
attr source  packetReceivedFromLower
attr title  "packets received from lower layer, count"
scalar Scenario.UAV[3].wlan[0].mac 	rcvdPkFromLL:sum(packetBytes) 	16060
attr interpolationmode  none
attr source  packetReceivedFromLower
attr title  "packets received from lower layer, sum(packetBytes)"
scalar Scenario.UAV[3].wlan[0].mac 	sentDownPk:count 	8
attr interpolationmode  none
attr source  packetSentToLower
attr title  "packets sent to lower layer, count"
scalar Scenario.UAV[3].wlan[0].mac 	sentDownPk:sum(packetBytes) 	784
attr interpolationmode  none
attr source  packetSentToLower
attr title  "packets sent to lower layer, sum(packetBytes)"
statistic Scenario.UAV[3].wlan[0].radio 	symbolErrorRate:histogram
field count 145
field mean 0.020689655172414
field stddev 0.14283661593084
field sum 3
field sqrsum 3
field min 0
field max 1
attr source  symbolErrorRate
attr title  "Symbol error rate, histogram"
bin	-INF	0
bin	-1	0
bin	0	142
bin	1	3
bin	2	0
statistic Scenario.UAV[3].wlan[0].radio 	bitErrorRate:histogram
field count 145
field mean 0.020689655172414
field stddev 0.14283661593084
field sum 3
field sqrsum 3
field min 0
field max 1
attr source  bitErrorRate
attr title  "Bit error rate, histogram"
bin	-INF	0
bin	-1	0
bin	0	142
bin	1	3
bin	2	0
statistic Scenario.UAV[3].wlan[0].radio 	packetErrorRate:histogram
field count 145
field mean 0.020689655172414
field stddev 0.14283661593084
field sum 3
field sqrsum 3
field min 0
field max 1
attr source  packetErrorRate
attr title  "Packet error rate, histogram"
bin	-INF	0
bin	-1	0
bin	0	142
bin	1	3
bin	2	0
statistic Scenario.UAV[3].wlan[0].radio 	minSNIR:histogram
field count 145
field mean nan
field stddev nan
field sum nan
field sqrsum nan
field min nan
field max nan
attr source  minSNIR
attr title  "Min SNIR, histogram"
bin	-INF	145
bin	nan	0
bin	nan	0
bin	nan	0
bin	nan	0
bin	nan	0
bin	nan	0
bin	nan	0
bin	nan	0
bin	nan	0
bin	nan	0
bin	nan	0
bin	nan	0
bin	nan	0
bin	nan	0
bin	nan	0
bin	nan	0
bin	nan	0
bin	nan	0
bin	nan	0
bin	nan	0
bin	nan	0
bin	nan	0
bin	nan	0
bin	nan	0
bin	nan	0
bin	nan	0
bin	nan	0
bin	nan	0
bin	nan	0
bin	nan	0
bin	nan	0
scalar Scenario.UAV[3].wlan[0].radio 	transmissionState:count 	17
attr interpolationmode  sample-hold
attr source  transmissionStateChanged
attr title  "Radio transmission state, count"
scalar Scenario.UAV[3].wlan[0].radio 	receptionState:count 	291
attr interpolationmode  sample-hold
attr source  receptionStateChanged
attr title  "Radio reception state, count"
scalar Scenario.UAV[3].wlan[0].radio 	radioMode:count 	2
attr interpolationmode  sample-hold
attr source  radioModeChanged
attr title  "Radio mode, count"
scalar Scenario.UAV[3].udpApp[0] 	"packets sent" 	5
scalar Scenario.UAV[3].udpApp[0] 	"packets received" 	0
scalar Scenario.UAV[3].udpApp[0] 	sentPk:count 	5
attr interpolationmode  none
attr source  sentPk
attr title  "packets sent, count"
scalar Scenario.UAV[3].udpApp[0] 	sentPk:sum(packetBytes) 	500
attr interpolationmode  none
attr source  sentPk
attr title  "packets sent, sum(packetBytes)"
scalar Scenario.UAV[3].udpApp[0] 	rcvdPk:count 	0
attr interpolationmode  none
attr source  rcvdPk
attr title  "packets received, count"
scalar Scenario.UAV[3].udpApp[0] 	rcvdPk:sum(packetBytes) 	0
attr interpolationmode  none
attr source  rcvdPk
attr title  "packets received, sum(packetBytes)"
statistic Scenario.UAV[3].udpApp[0] 	rcvdPkLifetime:stats
field count 0
field mean nan
field stddev nan
field sum 0
field sqrsum 0
field min nan
field max nan
attr interpolationmode  none
attr source  messageAge(rcvdPk)
attr title  "received packet lifetime, stats"
attr unit  s
scalar Scenario.UAV[3].udp 	droppedPkBadChecksum:count 	0
attr interpolationmode  none
attr title  "packets dropped (checksum error), count"
scalar Scenario.UAV[3].udp 	droppedPkWrongPort:count 	0
attr interpolationmode  none
attr title  "packets dropped (wrong port), count"
scalar Scenario.UAV[3].udp 	passedUpPk:count 	0
attr interpolationmode  none
attr title  "packets passed up, count"
scalar Scenario.UAV[3].udp 	sentPk:count 	5
attr interpolationmode  none
attr source  sentPk
attr title  "packets sent, count"
scalar Scenario.UAV[3].udp 	sentPk:sum(packetBytes) 	540
attr interpolationmode  none
attr source  sentPk
attr title  "packets sent, sum(packetBytes)"
scalar Scenario.UAV[3].udp 	rcvdPk:count 	0
attr interpolationmode  none
attr source  rcvdPk
attr title  "packets received, count"
scalar Scenario.UAV[3].udp 	rcvdPk:sum(packetBytes) 	0
attr interpolationmode  none
attr source  rcvdPk
attr title  "packets received, sum(packetBytes)"
scalar Scenario.UAV[4].networkLayer.arp 	sentReply:count 	0
attr title  "ARP replies sent, count"
scalar Scenario.UAV[4].networkLayer.arp 	sentReq:count 	4
attr title  "ARP request sent, count"
scalar Scenario.UAV[4].networkLayer.arp 	failedARPResolution:count 	1
attr title  "ARP failed resolutions, count"
scalar Scenario.UAV[4].networkLayer.arp 	completedARPResolution:count 	1
attr title  "ARP completed resolutions, count"
scalar Scenario.UAV[4].networkLayer.arp 	initiatedARPResolution:count 	2
attr title  "ARP initiated resolutions, count"
scalar Scenario.UAV[4].lo0.lo 	droppedPkBitError:count 	0
attr interpolationmode  none
attr source  dropPkBitError
attr title  "packets dropped/bit error, count"
scalar Scenario.UAV[4].lo0.lo 	droppedPkBitError:sum(packetBytes) 	0
attr interpolationmode  none
attr source  dropPkBitError
attr title  "packets dropped/bit error, sum(packetBytes)"
scalar Scenario.UAV[4].lo0.lo 	rcvdPkFromHL:count 	0
attr interpolationmode  none
attr source  packetReceivedFromUpper
attr title  "packets received from higher layer, count"
scalar Scenario.UAV[4].lo0.lo 	rcvdPkFromHL:sum(packetBytes) 	0
attr interpolationmode  none
attr source  packetReceivedFromUpper
attr title  "packets received from higher layer, sum(packetBytes)"
scalar Scenario.UAV[4].lo0.lo 	passedUpPk:count 	0
attr interpolationmode  none
attr source  packetSentToUpper
attr title  "packets passed to higher layer, count"
scalar Scenario.UAV[4].lo0.lo 	passedUpPk:sum(packetBytes) 	0
attr interpolationmode  none
attr source  packetSentToUpper
attr title  "packets passed to higher layer, sum(packetBytes)"
scalar Scenario.UAV[4].wlan[0].queue 	queueLength:max 	0
attr interpolationmode  sample-hold
attr title  "queue length, max"
scalar Scenario.UAV[4].wlan[0].queue 	queueLength:timeavg 	0
attr interpolationmode  sample-hold
attr title  "queue length, timeavg"
statistic Scenario.UAV[4].wlan[0].queue 	queueingTime:histogram
field count 7
field mean 0
field stddev 0
field sum 0
field sqrsum 0
field min 0
field max 0
attr interpolationmode  none
attr title  "queueing time, histogram"
bin	-INF	0
bin	-0.5	0
bin	-0.46666666666667	0
bin	-0.43333333333333	0
bin	-0.4	0
bin	-0.36666666666667	0
bin	-0.33333333333333	0
bin	-0.3	0
bin	-0.26666666666667	0
bin	-0.23333333333333	0
bin	-0.2	0
bin	-0.16666666666667	0
bin	-0.13333333333333	0
bin	-0.1	0
bin	-0.066666666666667	0
bin	-0.033333333333333	0
bin	-6.9388939039072e-018	7
bin	0.033333333333333	0
bin	0.066666666666667	0
bin	0.1	0
bin	0.13333333333333	0
bin	0.16666666666667	0
bin	0.2	0
bin	0.23333333333333	0
bin	0.26666666666667	0
bin	0.3	0
bin	0.33333333333333	0
bin	0.36666666666667	0
bin	0.4	0
bin	0.43333333333333	0
bin	0.46666666666667	0
bin	0.5	0
scalar Scenario.UAV[4].wlan[0].queue 	dropPk:count 	0
attr interpolationmode  none
attr source  dropPkByQueue
attr title  "dropped packets, count"
scalar Scenario.UAV[4].wlan[0].queue 	dropPk:sum(packetBytes) 	0
attr interpolationmode  none
attr source  dropPkByQueue
attr title  "dropped packets, sum(packetBytes)"
scalar Scenario.UAV[4].wlan[0].queue 	rcvdPk:count 	7
attr interpolationmode  none
attr title  "received packets, count"
scalar Scenario.UAV[4].wlan[0].queue 	rcvdPk:sum(packetBytes) 	496
attr interpolationmode  none
attr title  "received packets, sum(packetBytes)"
scalar Scenario.UAV[4].wlan[0].mac 	droppedPkNotForUs:count 	127
attr interpolationmode  none
attr source  dropPkNotForUs
attr title  "packets dropped/not for us, count"
scalar Scenario.UAV[4].wlan[0].mac 	droppedPkNotForUs:sum(packetBytes) 	15896
attr interpolationmode  none
attr source  dropPkNotForUs
attr title  "packets dropped/not for us, sum(packetBytes)"
scalar Scenario.UAV[4].wlan[0].mac 	rcvdPkFromHL:count 	7
attr interpolationmode  none
attr source  packetReceivedFromUpper
attr title  "packets received from higher layer, count"
scalar Scenario.UAV[4].wlan[0].mac 	rcvdPkFromHL:sum(packetBytes) 	496
attr interpolationmode  none
attr source  packetReceivedFromUpper
attr title  "packets received from higher layer, sum(packetBytes)"
scalar Scenario.UAV[4].wlan[0].mac 	passedUpPk:count 	27
attr interpolationmode  none
attr source  packetSentToUpper
attr title  "packets passed to higher layer, count"
scalar Scenario.UAV[4].wlan[0].mac 	passedUpPk:sum(packetBytes) 	756
attr interpolationmode  none
attr source  packetSentToUpper
attr title  "packets passed to higher layer, sum(packetBytes)"
scalar Scenario.UAV[4].wlan[0].mac 	rcvdPkFromLL:count 	154
attr interpolationmode  none
attr source  packetReceivedFromLower
attr title  "packets received from lower layer, count"
scalar Scenario.UAV[4].wlan[0].mac 	rcvdPkFromLL:sum(packetBytes) 	17192
attr interpolationmode  none
attr source  packetReceivedFromLower
attr title  "packets received from lower layer, sum(packetBytes)"
scalar Scenario.UAV[4].wlan[0].mac 	sentDownPk:count 	7
attr interpolationmode  none
attr source  packetSentToLower
attr title  "packets sent to lower layer, count"
scalar Scenario.UAV[4].wlan[0].mac 	sentDownPk:sum(packetBytes) 	636
attr interpolationmode  none
attr source  packetSentToLower
attr title  "packets sent to lower layer, sum(packetBytes)"
statistic Scenario.UAV[4].wlan[0].radio 	symbolErrorRate:histogram
field count 154
field mean 0.019480519480519
field stddev 0.13865739131777
field sum 3
field sqrsum 3
field min 0
field max 1
attr source  symbolErrorRate
attr title  "Symbol error rate, histogram"
bin	-INF	0
bin	-1	0
bin	0	151
bin	1	3
bin	2	0
statistic Scenario.UAV[4].wlan[0].radio 	bitErrorRate:histogram
field count 154
field mean 0.019480519480519
field stddev 0.13865739131777
field sum 3
field sqrsum 3
field min 0
field max 1
attr source  bitErrorRate
attr title  "Bit error rate, histogram"
bin	-INF	0
bin	-1	0
bin	0	151
bin	1	3
bin	2	0
statistic Scenario.UAV[4].wlan[0].radio 	packetErrorRate:histogram
field count 154
field mean 0.019480519480519
field stddev 0.13865739131777
field sum 3
field sqrsum 3
field min 0
field max 1
attr source  packetErrorRate
attr title  "Packet error rate, histogram"
bin	-INF	0
bin	-1	0
bin	0	151
bin	1	3
bin	2	0
statistic Scenario.UAV[4].wlan[0].radio 	minSNIR:histogram
field count 154
field mean nan
field stddev nan
field sum nan
field sqrsum nan
field min nan
field max nan
attr source  minSNIR
attr title  "Min SNIR, histogram"
bin	-INF	154
bin	nan	0
bin	nan	0
bin	nan	0
bin	nan	0
bin	nan	0
bin	nan	0
bin	nan	0
bin	nan	0
bin	nan	0
bin	nan	0
bin	nan	0
bin	nan	0
bin	nan	0
bin	nan	0
bin	nan	0
bin	nan	0
bin	nan	0
bin	nan	0
bin	nan	0
bin	nan	0
bin	nan	0
bin	nan	0
bin	nan	0
bin	nan	0
bin	nan	0
bin	nan	0
bin	nan	0
bin	nan	0
bin	nan	0
bin	nan	0
bin	nan	0
scalar Scenario.UAV[4].wlan[0].radio 	transmissionState:count 	15
attr interpolationmode  sample-hold
attr source  transmissionStateChanged
attr title  "Radio transmission state, count"
scalar Scenario.UAV[4].wlan[0].radio 	receptionState:count 	309
attr interpolationmode  sample-hold
attr source  receptionStateChanged
attr title  "Radio reception state, count"
scalar Scenario.UAV[4].wlan[0].radio 	radioMode:count 	2
attr interpolationmode  sample-hold
attr source  radioModeChanged
attr title  "Radio mode, count"
scalar Scenario.UAV[4].udpApp[0] 	"packets sent" 	4
scalar Scenario.UAV[4].udpApp[0] 	"packets received" 	0
scalar Scenario.UAV[4].udpApp[0] 	sentPk:count 	4
attr interpolationmode  none
attr source  sentPk
attr title  "packets sent, count"
scalar Scenario.UAV[4].udpApp[0] 	sentPk:sum(packetBytes) 	400
attr interpolationmode  none
attr source  sentPk
attr title  "packets sent, sum(packetBytes)"
scalar Scenario.UAV[4].udpApp[0] 	rcvdPk:count 	0
attr interpolationmode  none
attr source  rcvdPk
attr title  "packets received, count"
scalar Scenario.UAV[4].udpApp[0] 	rcvdPk:sum(packetBytes) 	0
attr interpolationmode  none
attr source  rcvdPk
attr title  "packets received, sum(packetBytes)"
statistic Scenario.UAV[4].udpApp[0] 	rcvdPkLifetime:stats
field count 0
field mean nan
field stddev nan
field sum 0
field sqrsum 0
field min nan
field max nan
attr interpolationmode  none
attr source  messageAge(rcvdPk)
attr title  "received packet lifetime, stats"
attr unit  s
scalar Scenario.UAV[4].udp 	droppedPkBadChecksum:count 	0
attr interpolationmode  none
attr title  "packets dropped (checksum error), count"
scalar Scenario.UAV[4].udp 	droppedPkWrongPort:count 	0
attr interpolationmode  none
attr title  "packets dropped (wrong port), count"
scalar Scenario.UAV[4].udp 	passedUpPk:count 	0
attr interpolationmode  none
attr title  "packets passed up, count"
scalar Scenario.UAV[4].udp 	sentPk:count 	4
attr interpolationmode  none
attr source  sentPk
attr title  "packets sent, count"
scalar Scenario.UAV[4].udp 	sentPk:sum(packetBytes) 	432
attr interpolationmode  none
attr source  sentPk
attr title  "packets sent, sum(packetBytes)"
scalar Scenario.UAV[4].udp 	rcvdPk:count 	0
attr interpolationmode  none
attr source  rcvdPk
attr title  "packets received, count"
scalar Scenario.UAV[4].udp 	rcvdPk:sum(packetBytes) 	0
attr interpolationmode  none
attr source  rcvdPk
attr title  "packets received, sum(packetBytes)"
scalar Scenario.UAV[5].networkLayer.arp 	sentReply:count 	0
attr title  "ARP replies sent, count"
scalar Scenario.UAV[5].networkLayer.arp 	sentReq:count 	4
attr title  "ARP request sent, count"
scalar Scenario.UAV[5].networkLayer.arp 	failedARPResolution:count 	1
attr title  "ARP failed resolutions, count"
scalar Scenario.UAV[5].networkLayer.arp 	completedARPResolution:count 	1
attr title  "ARP completed resolutions, count"
scalar Scenario.UAV[5].networkLayer.arp 	initiatedARPResolution:count 	2
attr title  "ARP initiated resolutions, count"
scalar Scenario.UAV[5].lo0.lo 	droppedPkBitError:count 	0
attr interpolationmode  none
attr source  dropPkBitError
attr title  "packets dropped/bit error, count"
scalar Scenario.UAV[5].lo0.lo 	droppedPkBitError:sum(packetBytes) 	0
attr interpolationmode  none
attr source  dropPkBitError
attr title  "packets dropped/bit error, sum(packetBytes)"
scalar Scenario.UAV[5].lo0.lo 	rcvdPkFromHL:count 	0
attr interpolationmode  none
attr source  packetReceivedFromUpper
attr title  "packets received from higher layer, count"
scalar Scenario.UAV[5].lo0.lo 	rcvdPkFromHL:sum(packetBytes) 	0
attr interpolationmode  none
attr source  packetReceivedFromUpper
attr title  "packets received from higher layer, sum(packetBytes)"
scalar Scenario.UAV[5].lo0.lo 	passedUpPk:count 	0
attr interpolationmode  none
attr source  packetSentToUpper
attr title  "packets passed to higher layer, count"
scalar Scenario.UAV[5].lo0.lo 	passedUpPk:sum(packetBytes) 	0
attr interpolationmode  none
attr source  packetSentToUpper
attr title  "packets passed to higher layer, sum(packetBytes)"
scalar Scenario.UAV[5].wlan[0].queue 	queueLength:max 	0
attr interpolationmode  sample-hold
attr title  "queue length, max"
scalar Scenario.UAV[5].wlan[0].queue 	queueLength:timeavg 	0
attr interpolationmode  sample-hold
attr title  "queue length, timeavg"
statistic Scenario.UAV[5].wlan[0].queue 	queueingTime:histogram
field count 8
field mean 0
field stddev 0
field sum 0
field sqrsum 0
field min 0
field max 0
attr interpolationmode  none
attr title  "queueing time, histogram"
bin	-INF	0
bin	-0.5	0
bin	-0.46666666666667	0
bin	-0.43333333333333	0
bin	-0.4	0
bin	-0.36666666666667	0
bin	-0.33333333333333	0
bin	-0.3	0
bin	-0.26666666666667	0
bin	-0.23333333333333	0
bin	-0.2	0
bin	-0.16666666666667	0
bin	-0.13333333333333	0
bin	-0.1	0
bin	-0.066666666666667	0
bin	-0.033333333333333	0
bin	-6.9388939039072e-018	8
bin	0.033333333333333	0
bin	0.066666666666667	0
bin	0.1	0
bin	0.13333333333333	0
bin	0.16666666666667	0
bin	0.2	0
bin	0.23333333333333	0
bin	0.26666666666667	0
bin	0.3	0
bin	0.33333333333333	0
bin	0.36666666666667	0
bin	0.4	0
bin	0.43333333333333	0
bin	0.46666666666667	0
bin	0.5	0
scalar Scenario.UAV[5].wlan[0].queue 	dropPk:count 	0
attr interpolationmode  none
attr source  dropPkByQueue
attr title  "dropped packets, count"
scalar Scenario.UAV[5].wlan[0].queue 	dropPk:sum(packetBytes) 	0
attr interpolationmode  none
attr source  dropPkByQueue
attr title  "dropped packets, sum(packetBytes)"
scalar Scenario.UAV[5].wlan[0].queue 	rcvdPk:count 	8
attr interpolationmode  none
attr title  "received packets, count"
scalar Scenario.UAV[5].wlan[0].queue 	rcvdPk:sum(packetBytes) 	624
attr interpolationmode  none
attr title  "received packets, sum(packetBytes)"
scalar Scenario.UAV[5].wlan[0].mac 	droppedPkNotForUs:count 	126
attr interpolationmode  none
attr source  dropPkNotForUs
attr title  "packets dropped/not for us, count"
scalar Scenario.UAV[5].wlan[0].mac 	droppedPkNotForUs:sum(packetBytes) 	15748
attr interpolationmode  none
attr source  dropPkNotForUs
attr title  "packets dropped/not for us, sum(packetBytes)"
scalar Scenario.UAV[5].wlan[0].mac 	rcvdPkFromHL:count 	8
attr interpolationmode  none
attr source  packetReceivedFromUpper
attr title  "packets received from higher layer, count"
scalar Scenario.UAV[5].wlan[0].mac 	rcvdPkFromHL:sum(packetBytes) 	624
attr interpolationmode  none
attr source  packetReceivedFromUpper
attr title  "packets received from higher layer, sum(packetBytes)"
scalar Scenario.UAV[5].wlan[0].mac 	passedUpPk:count 	28
attr interpolationmode  none
attr source  packetSentToUpper
attr title  "packets passed to higher layer, count"
scalar Scenario.UAV[5].wlan[0].mac 	passedUpPk:sum(packetBytes) 	784
attr interpolationmode  none
attr source  packetSentToUpper
attr title  "packets passed to higher layer, sum(packetBytes)"
scalar Scenario.UAV[5].wlan[0].mac 	rcvdPkFromLL:count 	154
attr interpolationmode  none
attr source  packetReceivedFromLower
attr title  "packets received from lower layer, count"
scalar Scenario.UAV[5].wlan[0].mac 	rcvdPkFromLL:sum(packetBytes) 	17092
attr interpolationmode  none
attr source  packetReceivedFromLower
attr title  "packets received from lower layer, sum(packetBytes)"
scalar Scenario.UAV[5].wlan[0].mac 	sentDownPk:count 	8
attr interpolationmode  none
attr source  packetSentToLower
attr title  "packets sent to lower layer, count"
scalar Scenario.UAV[5].wlan[0].mac 	sentDownPk:sum(packetBytes) 	784
attr interpolationmode  none
attr source  packetSentToLower
attr title  "packets sent to lower layer, sum(packetBytes)"
statistic Scenario.UAV[5].wlan[0].radio 	symbolErrorRate:histogram
field count 154
field mean 0.019480519480519
field stddev 0.13865739131777
field sum 3
field sqrsum 3
field min 0
field max 1
attr source  symbolErrorRate
attr title  "Symbol error rate, histogram"
bin	-INF	0
bin	-1	0
bin	0	151
bin	1	3
bin	2	0
statistic Scenario.UAV[5].wlan[0].radio 	bitErrorRate:histogram
field count 154
field mean 0.019480519480519
field stddev 0.13865739131777
field sum 3
field sqrsum 3
field min 0
field max 1
attr source  bitErrorRate
attr title  "Bit error rate, histogram"
bin	-INF	0
bin	-1	0
bin	0	151
bin	1	3
bin	2	0
statistic Scenario.UAV[5].wlan[0].radio 	packetErrorRate:histogram
field count 154
field mean 0.019480519480519
field stddev 0.13865739131777
field sum 3
field sqrsum 3
field min 0
field max 1
attr source  packetErrorRate
attr title  "Packet error rate, histogram"
bin	-INF	0
bin	-1	0
bin	0	151
bin	1	3
bin	2	0
statistic Scenario.UAV[5].wlan[0].radio 	minSNIR:histogram
field count 154
field mean nan
field stddev nan
field sum nan
field sqrsum nan
field min nan
field max nan
attr source  minSNIR
attr title  "Min SNIR, histogram"
bin	-INF	154
bin	nan	0
bin	nan	0
bin	nan	0
bin	nan	0
bin	nan	0
bin	nan	0
bin	nan	0
bin	nan	0
bin	nan	0
bin	nan	0
bin	nan	0
bin	nan	0
bin	nan	0
bin	nan	0
bin	nan	0
bin	nan	0
bin	nan	0
bin	nan	0
bin	nan	0
bin	nan	0
bin	nan	0
bin	nan	0
bin	nan	0
bin	nan	0
bin	nan	0
bin	nan	0
bin	nan	0
bin	nan	0
bin	nan	0
bin	nan	0
bin	nan	0
scalar Scenario.UAV[5].wlan[0].radio 	transmissionState:count 	17
attr interpolationmode  sample-hold
attr source  transmissionStateChanged
attr title  "Radio transmission state, count"
scalar Scenario.UAV[5].wlan[0].radio 	receptionState:count 	309
attr interpolationmode  sample-hold
attr source  receptionStateChanged
attr title  "Radio reception state, count"
scalar Scenario.UAV[5].wlan[0].radio 	radioMode:count 	2
attr interpolationmode  sample-hold
attr source  radioModeChanged
attr title  "Radio mode, count"
scalar Scenario.UAV[5].udpApp[0] 	"packets sent" 	5
scalar Scenario.UAV[5].udpApp[0] 	"packets received" 	0
scalar Scenario.UAV[5].udpApp[0] 	sentPk:count 	5
attr interpolationmode  none
attr source  sentPk
attr title  "packets sent, count"
scalar Scenario.UAV[5].udpApp[0] 	sentPk:sum(packetBytes) 	500
attr interpolationmode  none
attr source  sentPk
attr title  "packets sent, sum(packetBytes)"
scalar Scenario.UAV[5].udpApp[0] 	rcvdPk:count 	0
attr interpolationmode  none
attr source  rcvdPk
attr title  "packets received, count"
scalar Scenario.UAV[5].udpApp[0] 	rcvdPk:sum(packetBytes) 	0
attr interpolationmode  none
attr source  rcvdPk
attr title  "packets received, sum(packetBytes)"
statistic Scenario.UAV[5].udpApp[0] 	rcvdPkLifetime:stats
field count 0
field mean nan
field stddev nan
field sum 0
field sqrsum 0
field min nan
field max nan
attr interpolationmode  none
attr source  messageAge(rcvdPk)
attr title  "received packet lifetime, stats"
attr unit  s
scalar Scenario.UAV[5].udp 	droppedPkBadChecksum:count 	0
attr interpolationmode  none
attr title  "packets dropped (checksum error), count"
scalar Scenario.UAV[5].udp 	droppedPkWrongPort:count 	0
attr interpolationmode  none
attr title  "packets dropped (wrong port), count"
scalar Scenario.UAV[5].udp 	passedUpPk:count 	0
attr interpolationmode  none
attr title  "packets passed up, count"
scalar Scenario.UAV[5].udp 	sentPk:count 	5
attr interpolationmode  none
attr source  sentPk
attr title  "packets sent, count"
scalar Scenario.UAV[5].udp 	sentPk:sum(packetBytes) 	540
attr interpolationmode  none
attr source  sentPk
attr title  "packets sent, sum(packetBytes)"
scalar Scenario.UAV[5].udp 	rcvdPk:count 	0
attr interpolationmode  none
attr source  rcvdPk
attr title  "packets received, count"
scalar Scenario.UAV[5].udp 	rcvdPk:sum(packetBytes) 	0
attr interpolationmode  none
attr source  rcvdPk
attr title  "packets received, sum(packetBytes)"
scalar Scenario.UAV[6].networkLayer.arp 	sentReply:count 	0
attr title  "ARP replies sent, count"
scalar Scenario.UAV[6].networkLayer.arp 	sentReq:count 	4
attr title  "ARP request sent, count"
scalar Scenario.UAV[6].networkLayer.arp 	failedARPResolution:count 	1
attr title  "ARP failed resolutions, count"
scalar Scenario.UAV[6].networkLayer.arp 	completedARPResolution:count 	1
attr title  "ARP completed resolutions, count"
scalar Scenario.UAV[6].networkLayer.arp 	initiatedARPResolution:count 	2
attr title  "ARP initiated resolutions, count"
scalar Scenario.UAV[6].lo0.lo 	droppedPkBitError:count 	0
attr interpolationmode  none
attr source  dropPkBitError
attr title  "packets dropped/bit error, count"
scalar Scenario.UAV[6].lo0.lo 	droppedPkBitError:sum(packetBytes) 	0
attr interpolationmode  none
attr source  dropPkBitError
attr title  "packets dropped/bit error, sum(packetBytes)"
scalar Scenario.UAV[6].lo0.lo 	rcvdPkFromHL:count 	0
attr interpolationmode  none
attr source  packetReceivedFromUpper
attr title  "packets received from higher layer, count"
scalar Scenario.UAV[6].lo0.lo 	rcvdPkFromHL:sum(packetBytes) 	0
attr interpolationmode  none
attr source  packetReceivedFromUpper
attr title  "packets received from higher layer, sum(packetBytes)"
scalar Scenario.UAV[6].lo0.lo 	passedUpPk:count 	0
attr interpolationmode  none
attr source  packetSentToUpper
attr title  "packets passed to higher layer, count"
scalar Scenario.UAV[6].lo0.lo 	passedUpPk:sum(packetBytes) 	0
attr interpolationmode  none
attr source  packetSentToUpper
attr title  "packets passed to higher layer, sum(packetBytes)"
scalar Scenario.UAV[6].wlan[0].queue 	queueLength:max 	0
attr interpolationmode  sample-hold
attr title  "queue length, max"
scalar Scenario.UAV[6].wlan[0].queue 	queueLength:timeavg 	0
attr interpolationmode  sample-hold
attr title  "queue length, timeavg"
statistic Scenario.UAV[6].wlan[0].queue 	queueingTime:histogram
field count 7
field mean 0
field stddev 0
field sum 0
field sqrsum 0
field min 0
field max 0
attr interpolationmode  none
attr title  "queueing time, histogram"
bin	-INF	0
bin	-0.5	0
bin	-0.46666666666667	0
bin	-0.43333333333333	0
bin	-0.4	0
bin	-0.36666666666667	0
bin	-0.33333333333333	0
bin	-0.3	0
bin	-0.26666666666667	0
bin	-0.23333333333333	0
bin	-0.2	0
bin	-0.16666666666667	0
bin	-0.13333333333333	0
bin	-0.1	0
bin	-0.066666666666667	0
bin	-0.033333333333333	0
bin	-6.9388939039072e-018	7
bin	0.033333333333333	0
bin	0.066666666666667	0
bin	0.1	0
bin	0.13333333333333	0
bin	0.16666666666667	0
bin	0.2	0
bin	0.23333333333333	0
bin	0.26666666666667	0
bin	0.3	0
bin	0.33333333333333	0
bin	0.36666666666667	0
bin	0.4	0
bin	0.43333333333333	0
bin	0.46666666666667	0
bin	0.5	0
scalar Scenario.UAV[6].wlan[0].queue 	dropPk:count 	0
attr interpolationmode  none
attr source  dropPkByQueue
attr title  "dropped packets, count"
scalar Scenario.UAV[6].wlan[0].queue 	dropPk:sum(packetBytes) 	0
attr interpolationmode  none
attr source  dropPkByQueue
attr title  "dropped packets, sum(packetBytes)"
scalar Scenario.UAV[6].wlan[0].queue 	rcvdPk:count 	7
attr interpolationmode  none
attr title  "received packets, count"
scalar Scenario.UAV[6].wlan[0].queue 	rcvdPk:sum(packetBytes) 	496
attr interpolationmode  none
attr title  "received packets, sum(packetBytes)"
scalar Scenario.UAV[6].wlan[0].mac 	droppedPkNotForUs:count 	112
attr interpolationmode  none
attr source  dropPkNotForUs
attr title  "packets dropped/not for us, count"
scalar Scenario.UAV[6].wlan[0].mac 	droppedPkNotForUs:sum(packetBytes) 	13676
attr interpolationmode  none
attr source  dropPkNotForUs
attr title  "packets dropped/not for us, sum(packetBytes)"
scalar Scenario.UAV[6].wlan[0].mac 	rcvdPkFromHL:count 	7
attr interpolationmode  none
attr source  packetReceivedFromUpper
attr title  "packets received from higher layer, count"
scalar Scenario.UAV[6].wlan[0].mac 	rcvdPkFromHL:sum(packetBytes) 	496
attr interpolationmode  none
attr source  packetReceivedFromUpper
attr title  "packets received from higher layer, sum(packetBytes)"
scalar Scenario.UAV[6].wlan[0].mac 	passedUpPk:count 	23
attr interpolationmode  none
attr source  packetSentToUpper
attr title  "packets passed to higher layer, count"
scalar Scenario.UAV[6].wlan[0].mac 	passedUpPk:sum(packetBytes) 	644
attr interpolationmode  none
attr source  packetSentToUpper
attr title  "packets passed to higher layer, sum(packetBytes)"
scalar Scenario.UAV[6].wlan[0].mac 	rcvdPkFromLL:count 	135
attr interpolationmode  none
attr source  packetReceivedFromLower
attr title  "packets received from lower layer, count"
scalar Scenario.UAV[6].wlan[0].mac 	rcvdPkFromLL:sum(packetBytes) 	14780
attr interpolationmode  none
attr source  packetReceivedFromLower
attr title  "packets received from lower layer, sum(packetBytes)"
scalar Scenario.UAV[6].wlan[0].mac 	sentDownPk:count 	7
attr interpolationmode  none
attr source  packetSentToLower
attr title  "packets sent to lower layer, count"
scalar Scenario.UAV[6].wlan[0].mac 	sentDownPk:sum(packetBytes) 	636
attr interpolationmode  none
attr source  packetSentToLower
attr title  "packets sent to lower layer, sum(packetBytes)"
statistic Scenario.UAV[6].wlan[0].radio 	symbolErrorRate:histogram
field count 135
field mean 0.022222222222222
field stddev 0.1479545445861
field sum 3
field sqrsum 3
field min 0
field max 1
attr source  symbolErrorRate
attr title  "Symbol error rate, histogram"
bin	-INF	0
bin	-1	0
bin	0	132
bin	1	3
bin	2	0
statistic Scenario.UAV[6].wlan[0].radio 	bitErrorRate:histogram
field count 135
field mean 0.022222222222222
field stddev 0.1479545445861
field sum 3
field sqrsum 3
field min 0
field max 1
attr source  bitErrorRate
attr title  "Bit error rate, histogram"
bin	-INF	0
bin	-1	0
bin	0	132
bin	1	3
bin	2	0
statistic Scenario.UAV[6].wlan[0].radio 	packetErrorRate:histogram
field count 135
field mean 0.022222222222222
field stddev 0.1479545445861
field sum 3
field sqrsum 3
field min 0
field max 1
attr source  packetErrorRate
attr title  "Packet error rate, histogram"
bin	-INF	0
bin	-1	0
bin	0	132
bin	1	3
bin	2	0
statistic Scenario.UAV[6].wlan[0].radio 	minSNIR:histogram
field count 135
field mean nan
field stddev nan
field sum nan
field sqrsum nan
field min nan
field max nan
attr source  minSNIR
attr title  "Min SNIR, histogram"
bin	-INF	135
bin	nan	0
bin	nan	0
bin	nan	0
bin	nan	0
bin	nan	0
bin	nan	0
bin	nan	0
bin	nan	0
bin	nan	0
bin	nan	0
bin	nan	0
bin	nan	0
bin	nan	0
bin	nan	0
bin	nan	0
bin	nan	0
bin	nan	0
bin	nan	0
bin	nan	0
bin	nan	0
bin	nan	0
bin	nan	0
bin	nan	0
bin	nan	0
bin	nan	0
bin	nan	0
bin	nan	0
bin	nan	0
bin	nan	0
bin	nan	0
bin	nan	0
scalar Scenario.UAV[6].wlan[0].radio 	transmissionState:count 	15
attr interpolationmode  sample-hold
attr source  transmissionStateChanged
attr title  "Radio transmission state, count"
scalar Scenario.UAV[6].wlan[0].radio 	receptionState:count 	271
attr interpolationmode  sample-hold
attr source  receptionStateChanged
attr title  "Radio reception state, count"
scalar Scenario.UAV[6].wlan[0].radio 	radioMode:count 	2
attr interpolationmode  sample-hold
attr source  radioModeChanged
attr title  "Radio mode, count"
scalar Scenario.UAV[6].udpApp[0] 	"packets sent" 	4
scalar Scenario.UAV[6].udpApp[0] 	"packets received" 	0
scalar Scenario.UAV[6].udpApp[0] 	sentPk:count 	4
attr interpolationmode  none
attr source  sentPk
attr title  "packets sent, count"
scalar Scenario.UAV[6].udpApp[0] 	sentPk:sum(packetBytes) 	400
attr interpolationmode  none
attr source  sentPk
attr title  "packets sent, sum(packetBytes)"
scalar Scenario.UAV[6].udpApp[0] 	rcvdPk:count 	0
attr interpolationmode  none
attr source  rcvdPk
attr title  "packets received, count"
scalar Scenario.UAV[6].udpApp[0] 	rcvdPk:sum(packetBytes) 	0
attr interpolationmode  none
attr source  rcvdPk
attr title  "packets received, sum(packetBytes)"
statistic Scenario.UAV[6].udpApp[0] 	rcvdPkLifetime:stats
field count 0
field mean nan
field stddev nan
field sum 0
field sqrsum 0
field min nan
field max nan
attr interpolationmode  none
attr source  messageAge(rcvdPk)
attr title  "received packet lifetime, stats"
attr unit  s
scalar Scenario.UAV[6].udp 	droppedPkBadChecksum:count 	0
attr interpolationmode  none
attr title  "packets dropped (checksum error), count"
scalar Scenario.UAV[6].udp 	droppedPkWrongPort:count 	0
attr interpolationmode  none
attr title  "packets dropped (wrong port), count"
scalar Scenario.UAV[6].udp 	passedUpPk:count 	0
attr interpolationmode  none
attr title  "packets passed up, count"
scalar Scenario.UAV[6].udp 	sentPk:count 	4
attr interpolationmode  none
attr source  sentPk
attr title  "packets sent, count"
scalar Scenario.UAV[6].udp 	sentPk:sum(packetBytes) 	432
attr interpolationmode  none
attr source  sentPk
attr title  "packets sent, sum(packetBytes)"
scalar Scenario.UAV[6].udp 	rcvdPk:count 	0
attr interpolationmode  none
attr source  rcvdPk
attr title  "packets received, count"
scalar Scenario.UAV[6].udp 	rcvdPk:sum(packetBytes) 	0
attr interpolationmode  none
attr source  rcvdPk
attr title  "packets received, sum(packetBytes)"
scalar Scenario.UAV[7].networkLayer.arp 	sentReply:count 	0
attr title  "ARP replies sent, count"
scalar Scenario.UAV[7].networkLayer.arp 	sentReq:count 	4
attr title  "ARP request sent, count"
scalar Scenario.UAV[7].networkLayer.arp 	failedARPResolution:count 	1
attr title  "ARP failed resolutions, count"
scalar Scenario.UAV[7].networkLayer.arp 	completedARPResolution:count 	1
attr title  "ARP completed resolutions, count"
scalar Scenario.UAV[7].networkLayer.arp 	initiatedARPResolution:count 	2
attr title  "ARP initiated resolutions, count"
scalar Scenario.UAV[7].lo0.lo 	droppedPkBitError:count 	0
attr interpolationmode  none
attr source  dropPkBitError
attr title  "packets dropped/bit error, count"
scalar Scenario.UAV[7].lo0.lo 	droppedPkBitError:sum(packetBytes) 	0
attr interpolationmode  none
attr source  dropPkBitError
attr title  "packets dropped/bit error, sum(packetBytes)"
scalar Scenario.UAV[7].lo0.lo 	rcvdPkFromHL:count 	0
attr interpolationmode  none
attr source  packetReceivedFromUpper
attr title  "packets received from higher layer, count"
scalar Scenario.UAV[7].lo0.lo 	rcvdPkFromHL:sum(packetBytes) 	0
attr interpolationmode  none
attr source  packetReceivedFromUpper
attr title  "packets received from higher layer, sum(packetBytes)"
scalar Scenario.UAV[7].lo0.lo 	passedUpPk:count 	0
attr interpolationmode  none
attr source  packetSentToUpper
attr title  "packets passed to higher layer, count"
scalar Scenario.UAV[7].lo0.lo 	passedUpPk:sum(packetBytes) 	0
attr interpolationmode  none
attr source  packetSentToUpper
attr title  "packets passed to higher layer, sum(packetBytes)"
scalar Scenario.UAV[7].wlan[0].queue 	queueLength:max 	0
attr interpolationmode  sample-hold
attr title  "queue length, max"
scalar Scenario.UAV[7].wlan[0].queue 	queueLength:timeavg 	0
attr interpolationmode  sample-hold
attr title  "queue length, timeavg"
statistic Scenario.UAV[7].wlan[0].queue 	queueingTime:histogram
field count 8
field mean 0
field stddev 0
field sum 0
field sqrsum 0
field min 0
field max 0
attr interpolationmode  none
attr title  "queueing time, histogram"
bin	-INF	0
bin	-0.5	0
bin	-0.46666666666667	0
bin	-0.43333333333333	0
bin	-0.4	0
bin	-0.36666666666667	0
bin	-0.33333333333333	0
bin	-0.3	0
bin	-0.26666666666667	0
bin	-0.23333333333333	0
bin	-0.2	0
bin	-0.16666666666667	0
bin	-0.13333333333333	0
bin	-0.1	0
bin	-0.066666666666667	0
bin	-0.033333333333333	0
bin	-6.9388939039072e-018	8
bin	0.033333333333333	0
bin	0.066666666666667	0
bin	0.1	0
bin	0.13333333333333	0
bin	0.16666666666667	0
bin	0.2	0
bin	0.23333333333333	0
bin	0.26666666666667	0
bin	0.3	0
bin	0.33333333333333	0
bin	0.36666666666667	0
bin	0.4	0
bin	0.43333333333333	0
bin	0.46666666666667	0
bin	0.5	0
scalar Scenario.UAV[7].wlan[0].queue 	dropPk:count 	0
attr interpolationmode  none
attr source  dropPkByQueue
attr title  "dropped packets, count"
scalar Scenario.UAV[7].wlan[0].queue 	dropPk:sum(packetBytes) 	0
attr interpolationmode  none
attr source  dropPkByQueue
attr title  "dropped packets, sum(packetBytes)"
scalar Scenario.UAV[7].wlan[0].queue 	rcvdPk:count 	8
attr interpolationmode  none
attr title  "received packets, count"
scalar Scenario.UAV[7].wlan[0].queue 	rcvdPk:sum(packetBytes) 	624
attr interpolationmode  none
attr title  "received packets, sum(packetBytes)"
scalar Scenario.UAV[7].wlan[0].mac 	droppedPkNotForUs:count 	121
attr interpolationmode  none
attr source  dropPkNotForUs
attr title  "packets dropped/not for us, count"
scalar Scenario.UAV[7].wlan[0].mac 	droppedPkNotForUs:sum(packetBytes) 	15008
attr interpolationmode  none
attr source  dropPkNotForUs
attr title  "packets dropped/not for us, sum(packetBytes)"
scalar Scenario.UAV[7].wlan[0].mac 	rcvdPkFromHL:count 	8
attr interpolationmode  none
attr source  packetReceivedFromUpper
attr title  "packets received from higher layer, count"
scalar Scenario.UAV[7].wlan[0].mac 	rcvdPkFromHL:sum(packetBytes) 	624
attr interpolationmode  none
attr source  packetReceivedFromUpper
attr title  "packets received from higher layer, sum(packetBytes)"
scalar Scenario.UAV[7].wlan[0].mac 	passedUpPk:count 	23
attr interpolationmode  none
attr source  packetSentToUpper
attr title  "packets passed to higher layer, count"
scalar Scenario.UAV[7].wlan[0].mac 	passedUpPk:sum(packetBytes) 	644
attr interpolationmode  none
attr source  packetSentToUpper
attr title  "packets passed to higher layer, sum(packetBytes)"
scalar Scenario.UAV[7].wlan[0].mac 	rcvdPkFromLL:count 	144
attr interpolationmode  none
attr source  packetReceivedFromLower
attr title  "packets received from lower layer, count"
scalar Scenario.UAV[7].wlan[0].mac 	rcvdPkFromLL:sum(packetBytes) 	16112
attr interpolationmode  none
attr source  packetReceivedFromLower
attr title  "packets received from lower layer, sum(packetBytes)"
scalar Scenario.UAV[7].wlan[0].mac 	sentDownPk:count 	8
attr interpolationmode  none
attr source  packetSentToLower
attr title  "packets sent to lower layer, count"
scalar Scenario.UAV[7].wlan[0].mac 	sentDownPk:sum(packetBytes) 	784
attr interpolationmode  none
attr source  packetSentToLower
attr title  "packets sent to lower layer, sum(packetBytes)"
statistic Scenario.UAV[7].wlan[0].radio 	symbolErrorRate:histogram
field count 144
field mean 0.020833333333333
field stddev 0.14332465957384
field sum 3
field sqrsum 3
field min 0
field max 1
attr source  symbolErrorRate
attr title  "Symbol error rate, histogram"
bin	-INF	0
bin	-1	0
bin	0	141
bin	1	3
bin	2	0
statistic Scenario.UAV[7].wlan[0].radio 	bitErrorRate:histogram
field count 144
field mean 0.020833333333333
field stddev 0.14332465957384
field sum 3
field sqrsum 3
field min 0
field max 1
attr source  bitErrorRate
attr title  "Bit error rate, histogram"
bin	-INF	0
bin	-1	0
bin	0	141
bin	1	3
bin	2	0
statistic Scenario.UAV[7].wlan[0].radio 	packetErrorRate:histogram
field count 144
field mean 0.020833333333333
field stddev 0.14332465957384
field sum 3
field sqrsum 3
field min 0
field max 1
attr source  packetErrorRate
attr title  "Packet error rate, histogram"
bin	-INF	0
bin	-1	0
bin	0	141
bin	1	3
bin	2	0
statistic Scenario.UAV[7].wlan[0].radio 	minSNIR:histogram
field count 144
field mean nan
field stddev nan
field sum nan
field sqrsum nan
field min nan
field max nan
attr source  minSNIR
attr title  "Min SNIR, histogram"
bin	-INF	144
bin	nan	0
bin	nan	0
bin	nan	0
bin	nan	0
bin	nan	0
bin	nan	0
bin	nan	0
bin	nan	0
bin	nan	0
bin	nan	0
bin	nan	0
bin	nan	0
bin	nan	0
bin	nan	0
bin	nan	0
bin	nan	0
bin	nan	0
bin	nan	0
bin	nan	0
bin	nan	0
bin	nan	0
bin	nan	0
bin	nan	0
bin	nan	0
bin	nan	0
bin	nan	0
bin	nan	0
bin	nan	0
bin	nan	0
bin	nan	0
bin	nan	0
scalar Scenario.UAV[7].wlan[0].radio 	transmissionState:count 	17
attr interpolationmode  sample-hold
attr source  transmissionStateChanged
attr title  "Radio transmission state, count"
scalar Scenario.UAV[7].wlan[0].radio 	receptionState:count 	289
attr interpolationmode  sample-hold
attr source  receptionStateChanged
attr title  "Radio reception state, count"
scalar Scenario.UAV[7].wlan[0].radio 	radioMode:count 	2
attr interpolationmode  sample-hold
attr source  radioModeChanged
attr title  "Radio mode, count"
scalar Scenario.UAV[7].udpApp[0] 	"packets sent" 	5
scalar Scenario.UAV[7].udpApp[0] 	"packets received" 	0
scalar Scenario.UAV[7].udpApp[0] 	sentPk:count 	5
attr interpolationmode  none
attr source  sentPk
attr title  "packets sent, count"
scalar Scenario.UAV[7].udpApp[0] 	sentPk:sum(packetBytes) 	500
attr interpolationmode  none
attr source  sentPk
attr title  "packets sent, sum(packetBytes)"
scalar Scenario.UAV[7].udpApp[0] 	rcvdPk:count 	0
attr interpolationmode  none
attr source  rcvdPk
attr title  "packets received, count"
scalar Scenario.UAV[7].udpApp[0] 	rcvdPk:sum(packetBytes) 	0
attr interpolationmode  none
attr source  rcvdPk
attr title  "packets received, sum(packetBytes)"
statistic Scenario.UAV[7].udpApp[0] 	rcvdPkLifetime:stats
field count 0
field mean nan
field stddev nan
field sum 0
field sqrsum 0
field min nan
field max nan
attr interpolationmode  none
attr source  messageAge(rcvdPk)
attr title  "received packet lifetime, stats"
attr unit  s
scalar Scenario.UAV[7].udp 	droppedPkBadChecksum:count 	0
attr interpolationmode  none
attr title  "packets dropped (checksum error), count"
scalar Scenario.UAV[7].udp 	droppedPkWrongPort:count 	0
attr interpolationmode  none
attr title  "packets dropped (wrong port), count"
scalar Scenario.UAV[7].udp 	passedUpPk:count 	0
attr interpolationmode  none
attr title  "packets passed up, count"
scalar Scenario.UAV[7].udp 	sentPk:count 	5
attr interpolationmode  none
attr source  sentPk
attr title  "packets sent, count"
scalar Scenario.UAV[7].udp 	sentPk:sum(packetBytes) 	540
attr interpolationmode  none
attr source  sentPk
attr title  "packets sent, sum(packetBytes)"
scalar Scenario.UAV[7].udp 	rcvdPk:count 	0
attr interpolationmode  none
attr source  rcvdPk
attr title  "packets received, count"
scalar Scenario.UAV[7].udp 	rcvdPk:sum(packetBytes) 	0
attr interpolationmode  none
attr source  rcvdPk
attr title  "packets received, sum(packetBytes)"
scalar Scenario.UAV[8].networkLayer.arp 	sentReply:count 	0
attr title  "ARP replies sent, count"
scalar Scenario.UAV[8].networkLayer.arp 	sentReq:count 	4
attr title  "ARP request sent, count"
scalar Scenario.UAV[8].networkLayer.arp 	failedARPResolution:count 	1
attr title  "ARP failed resolutions, count"
scalar Scenario.UAV[8].networkLayer.arp 	completedARPResolution:count 	1
attr title  "ARP completed resolutions, count"
scalar Scenario.UAV[8].networkLayer.arp 	initiatedARPResolution:count 	2
attr title  "ARP initiated resolutions, count"
scalar Scenario.UAV[8].lo0.lo 	droppedPkBitError:count 	0
attr interpolationmode  none
attr source  dropPkBitError
attr title  "packets dropped/bit error, count"
scalar Scenario.UAV[8].lo0.lo 	droppedPkBitError:sum(packetBytes) 	0
attr interpolationmode  none
attr source  dropPkBitError
attr title  "packets dropped/bit error, sum(packetBytes)"
scalar Scenario.UAV[8].lo0.lo 	rcvdPkFromHL:count 	0
attr interpolationmode  none
attr source  packetReceivedFromUpper
attr title  "packets received from higher layer, count"
scalar Scenario.UAV[8].lo0.lo 	rcvdPkFromHL:sum(packetBytes) 	0
attr interpolationmode  none
attr source  packetReceivedFromUpper
attr title  "packets received from higher layer, sum(packetBytes)"
scalar Scenario.UAV[8].lo0.lo 	passedUpPk:count 	0
attr interpolationmode  none
attr source  packetSentToUpper
attr title  "packets passed to higher layer, count"
scalar Scenario.UAV[8].lo0.lo 	passedUpPk:sum(packetBytes) 	0
attr interpolationmode  none
attr source  packetSentToUpper
attr title  "packets passed to higher layer, sum(packetBytes)"
scalar Scenario.UAV[8].wlan[0].queue 	queueLength:max 	0
attr interpolationmode  sample-hold
attr title  "queue length, max"
scalar Scenario.UAV[8].wlan[0].queue 	queueLength:timeavg 	0
attr interpolationmode  sample-hold
attr title  "queue length, timeavg"
statistic Scenario.UAV[8].wlan[0].queue 	queueingTime:histogram
field count 7
field mean 0
field stddev 0
field sum 0
field sqrsum 0
field min 0
field max 0
attr interpolationmode  none
attr title  "queueing time, histogram"
bin	-INF	0
bin	-0.5	0
bin	-0.46666666666667	0
bin	-0.43333333333333	0
bin	-0.4	0
bin	-0.36666666666667	0
bin	-0.33333333333333	0
bin	-0.3	0
bin	-0.26666666666667	0
bin	-0.23333333333333	0
bin	-0.2	0
bin	-0.16666666666667	0
bin	-0.13333333333333	0
bin	-0.1	0
bin	-0.066666666666667	0
bin	-0.033333333333333	0
bin	-6.9388939039072e-018	7
bin	0.033333333333333	0
bin	0.066666666666667	0
bin	0.1	0
bin	0.13333333333333	0
bin	0.16666666666667	0
bin	0.2	0
bin	0.23333333333333	0
bin	0.26666666666667	0
bin	0.3	0
bin	0.33333333333333	0
bin	0.36666666666667	0
bin	0.4	0
bin	0.43333333333333	0
bin	0.46666666666667	0
bin	0.5	0
scalar Scenario.UAV[8].wlan[0].queue 	dropPk:count 	0
attr interpolationmode  none
attr source  dropPkByQueue
attr title  "dropped packets, count"
scalar Scenario.UAV[8].wlan[0].queue 	dropPk:sum(packetBytes) 	0
attr interpolationmode  none
attr source  dropPkByQueue
attr title  "dropped packets, sum(packetBytes)"
scalar Scenario.UAV[8].wlan[0].queue 	rcvdPk:count 	7
attr interpolationmode  none
attr title  "received packets, count"
scalar Scenario.UAV[8].wlan[0].queue 	rcvdPk:sum(packetBytes) 	496
attr interpolationmode  none
attr title  "received packets, sum(packetBytes)"
scalar Scenario.UAV[8].wlan[0].mac 	droppedPkNotForUs:count 	125
attr interpolationmode  none
attr source  dropPkNotForUs
attr title  "packets dropped/not for us, count"
scalar Scenario.UAV[8].wlan[0].mac 	droppedPkNotForUs:sum(packetBytes) 	15600
attr interpolationmode  none
attr source  dropPkNotForUs
attr title  "packets dropped/not for us, sum(packetBytes)"
scalar Scenario.UAV[8].wlan[0].mac 	rcvdPkFromHL:count 	7
attr interpolationmode  none
attr source  packetReceivedFromUpper
attr title  "packets received from higher layer, count"
scalar Scenario.UAV[8].wlan[0].mac 	rcvdPkFromHL:sum(packetBytes) 	496
attr interpolationmode  none
attr source  packetReceivedFromUpper
attr title  "packets received from higher layer, sum(packetBytes)"
scalar Scenario.UAV[8].wlan[0].mac 	passedUpPk:count 	30
attr interpolationmode  none
attr source  packetSentToUpper
attr title  "packets passed to higher layer, count"
scalar Scenario.UAV[8].wlan[0].mac 	passedUpPk:sum(packetBytes) 	840
attr interpolationmode  none
attr source  packetSentToUpper
attr title  "packets passed to higher layer, sum(packetBytes)"
scalar Scenario.UAV[8].wlan[0].mac 	rcvdPkFromLL:count 	155
attr interpolationmode  none
attr source  packetReceivedFromLower
attr title  "packets received from lower layer, count"
scalar Scenario.UAV[8].wlan[0].mac 	rcvdPkFromLL:sum(packetBytes) 	17040
attr interpolationmode  none
attr source  packetReceivedFromLower
attr title  "packets received from lower layer, sum(packetBytes)"
scalar Scenario.UAV[8].wlan[0].mac 	sentDownPk:count 	7
attr interpolationmode  none
attr source  packetSentToLower
attr title  "packets sent to lower layer, count"
scalar Scenario.UAV[8].wlan[0].mac 	sentDownPk:sum(packetBytes) 	636
attr interpolationmode  none
attr source  packetSentToLower
attr title  "packets sent to lower layer, sum(packetBytes)"
statistic Scenario.UAV[8].wlan[0].radio 	symbolErrorRate:histogram
field count 155
field mean 0.019354838709677
field stddev 0.13821532899065
field sum 3
field sqrsum 3
field min 0
field max 1
attr source  symbolErrorRate
attr title  "Symbol error rate, histogram"
bin	-INF	0
bin	-1	0
bin	0	152
bin	1	3
bin	2	0
statistic Scenario.UAV[8].wlan[0].radio 	bitErrorRate:histogram
field count 155
field mean 0.019354838709677
field stddev 0.13821532899065
field sum 3
field sqrsum 3
field min 0
field max 1
attr source  bitErrorRate
attr title  "Bit error rate, histogram"
bin	-INF	0
bin	-1	0
bin	0	152
bin	1	3
bin	2	0
statistic Scenario.UAV[8].wlan[0].radio 	packetErrorRate:histogram
field count 155
field mean 0.019354838709677
field stddev 0.13821532899065
field sum 3
field sqrsum 3
field min 0
field max 1
attr source  packetErrorRate
attr title  "Packet error rate, histogram"
bin	-INF	0
bin	-1	0
bin	0	152
bin	1	3
bin	2	0
statistic Scenario.UAV[8].wlan[0].radio 	minSNIR:histogram
field count 155
field mean nan
field stddev nan
field sum nan
field sqrsum nan
field min nan
field max nan
[...]
attr title  "packets sent, count"
scalar Scenario.UAV[28].udpApp[0] 	sentPk:sum(packetBytes) 	400
attr interpolationmode  none
attr source  sentPk
attr title  "packets sent, sum(packetBytes)"
scalar Scenario.UAV[28].udpApp[0] 	rcvdPk:count 	0
attr interpolationmode  none
attr source  rcvdPk
attr title  "packets received, count"
scalar Scenario.UAV[28].udpApp[0] 	rcvdPk:sum(packetBytes) 	0
attr interpolationmode  none
attr source  rcvdPk
attr title  "packets received, sum(packetBytes)"
statistic Scenario.UAV[28].udpApp[0] 	rcvdPkLifetime:stats
field count 0
field mean nan
field stddev nan
field sum 0
field sqrsum 0
field min nan
field max nan
attr interpolationmode  none
attr source  messageAge(rcvdPk)
attr title  "received packet lifetime, stats"
attr unit  s
scalar Scenario.UAV[28].udp 	droppedPkBadChecksum:count 	0
attr interpolationmode  none
attr title  "packets dropped (checksum error), count"
scalar Scenario.UAV[28].udp 	droppedPkWrongPort:count 	0
attr interpolationmode  none
attr title  "packets dropped (wrong port), count"
scalar Scenario.UAV[28].udp 	passedUpPk:count 	0
attr interpolationmode  none
attr title  "packets passed up, count"
scalar Scenario.UAV[28].udp 	sentPk:count 	4
attr interpolationmode  none
attr source  sentPk
attr title  "packets sent, count"
scalar Scenario.UAV[28].udp 	sentPk:sum(packetBytes) 	432
attr interpolationmode  none
attr source  sentPk
attr title  "packets sent, sum(packetBytes)"
scalar Scenario.UAV[28].udp 	rcvdPk:count 	0
attr interpolationmode  none
attr source  rcvdPk
attr title  "packets received, count"
scalar Scenario.UAV[28].udp 	rcvdPk:sum(packetBytes) 	0
attr interpolationmode  none
attr source  rcvdPk
attr title  "packets received, sum(packetBytes)"
scalar Scenario.UAV[29].networkLayer.arp 	sentReply:count 	0
attr title  "ARP replies sent, count"
scalar Scenario.UAV[29].networkLayer.arp 	sentReq:count 	4
attr title  "ARP request sent, count"
scalar Scenario.UAV[29].networkLayer.arp 	failedARPResolution:count 	1
attr title  "ARP failed resolutions, count"
scalar Scenario.UAV[29].networkLayer.arp 	completedARPResolution:count 	1
attr title  "ARP completed resolutions, count"
scalar Scenario.UAV[29].networkLayer.arp 	initiatedARPResolution:count 	2
attr title  "ARP initiated resolutions, count"
scalar Scenario.UAV[29].lo0.lo 	droppedPkBitError:count 	0
attr interpolationmode  none
attr source  dropPkBitError
attr title  "packets dropped/bit error, count"
scalar Scenario.UAV[29].lo0.lo 	droppedPkBitError:sum(packetBytes) 	0
attr interpolationmode  none
attr source  dropPkBitError
attr title  "packets dropped/bit error, sum(packetBytes)"
scalar Scenario.UAV[29].lo0.lo 	rcvdPkFromHL:count 	0
attr interpolationmode  none
attr source  packetReceivedFromUpper
attr title  "packets received from higher layer, count"
scalar Scenario.UAV[29].lo0.lo 	rcvdPkFromHL:sum(packetBytes) 	0
attr interpolationmode  none
attr source  packetReceivedFromUpper
attr title  "packets received from higher layer, sum(packetBytes)"
scalar Scenario.UAV[29].lo0.lo 	passedUpPk:count 	0
attr interpolationmode  none
attr source  packetSentToUpper
attr title  "packets passed to higher layer, count"
scalar Scenario.UAV[29].lo0.lo 	passedUpPk:sum(packetBytes) 	0
attr interpolationmode  none
attr source  packetSentToUpper
attr title  "packets passed to higher layer, sum(packetBytes)"
scalar Scenario.UAV[29].wlan[0].queue 	queueLength:max 	0
attr interpolationmode  sample-hold
attr title  "queue length, max"
scalar Scenario.UAV[29].wlan[0].queue 	queueLength:timeavg 	0
attr interpolationmode  sample-hold
attr title  "queue length, timeavg"
statistic Scenario.UAV[29].wlan[0].queue 	queueingTime:histogram
field count 8
field mean 0
field stddev 0
field sum 0
field sqrsum 0
field min 0
field max 0
attr interpolationmode  none
attr title  "queueing time, histogram"
bin	-INF	0
bin	-0.5	0
bin	-0.46666666666667	0
bin	-0.43333333333333	0
bin	-0.4	0
bin	-0.36666666666667	0
bin	-0.33333333333333	0
bin	-0.3	0
bin	-0.26666666666667	0
bin	-0.23333333333333	0
bin	-0.2	0
bin	-0.16666666666667	0
bin	-0.13333333333333	0
bin	-0.1	0
bin	-0.066666666666667	0
bin	-0.033333333333333	0
bin	-6.9388939039072e-018	8
bin	0.033333333333333	0
bin	0.066666666666667	0
bin	0.1	0
bin	0.13333333333333	0
bin	0.16666666666667	0
bin	0.2	0
bin	0.23333333333333	0
bin	0.26666666666667	0
bin	0.3	0
bin	0.33333333333333	0
bin	0.36666666666667	0
bin	0.4	0
bin	0.43333333333333	0
bin	0.46666666666667	0
bin	0.5	0
scalar Scenario.UAV[29].wlan[0].queue 	dropPk:count 	0
attr interpolationmode  none
attr source  dropPkByQueue
attr title  "dropped packets, count"
scalar Scenario.UAV[29].wlan[0].queue 	dropPk:sum(packetBytes) 	0
attr interpolationmode  none
attr source  dropPkByQueue
attr title  "dropped packets, sum(packetBytes)"
scalar Scenario.UAV[29].wlan[0].queue 	rcvdPk:count 	8
attr interpolationmode  none
attr title  "received packets, count"
scalar Scenario.UAV[29].wlan[0].queue 	rcvdPk:sum(packetBytes) 	624
attr interpolationmode  none
attr title  "received packets, sum(packetBytes)"
scalar Scenario.UAV[29].wlan[0].mac 	droppedPkNotForUs:count 	128
attr interpolationmode  none
attr source  dropPkNotForUs
attr title  "packets dropped/not for us, count"
scalar Scenario.UAV[29].wlan[0].mac 	droppedPkNotForUs:sum(packetBytes) 	16044
attr interpolationmode  none
attr source  dropPkNotForUs
attr title  "packets dropped/not for us, sum(packetBytes)"
scalar Scenario.UAV[29].wlan[0].mac 	rcvdPkFromHL:count 	8
attr interpolationmode  none
attr source  packetReceivedFromUpper
attr title  "packets received from higher layer, count"
scalar Scenario.UAV[29].wlan[0].mac 	rcvdPkFromHL:sum(packetBytes) 	624
attr interpolationmode  none
attr source  packetReceivedFromUpper
attr title  "packets received from higher layer, sum(packetBytes)"
scalar Scenario.UAV[29].wlan[0].mac 	passedUpPk:count 	27
attr interpolationmode  none
attr source  packetSentToUpper
attr title  "packets passed to higher layer, count"
scalar Scenario.UAV[29].wlan[0].mac 	passedUpPk:sum(packetBytes) 	756
attr interpolationmode  none
attr source  packetSentToUpper
attr title  "packets passed to higher layer, sum(packetBytes)"
scalar Scenario.UAV[29].wlan[0].mac 	rcvdPkFromLL:count 	155
attr interpolationmode  none
attr source  packetReceivedFromLower
attr title  "packets received from lower layer, count"
scalar Scenario.UAV[29].wlan[0].mac 	rcvdPkFromLL:sum(packetBytes) 	17340
attr interpolationmode  none
attr source  packetReceivedFromLower
attr title  "packets received from lower layer, sum(packetBytes)"
scalar Scenario.UAV[29].wlan[0].mac 	sentDownPk:count 	8
attr interpolationmode  none
attr source  packetSentToLower
attr title  "packets sent to lower layer, count"
scalar Scenario.UAV[29].wlan[0].mac 	sentDownPk:sum(packetBytes) 	784
attr interpolationmode  none
attr source  packetSentToLower
attr title  "packets sent to lower layer, sum(packetBytes)"
statistic Scenario.UAV[29].wlan[0].radio 	symbolErrorRate:histogram
field count 155
field mean 0.019354838709677
field stddev 0.13821532899065
field sum 3
field sqrsum 3
field min 0
field max 1
attr source  symbolErrorRate
attr title  "Symbol error rate, histogram"
bin	-INF	0
bin	-1	0
bin	0	152
bin	1	3
bin	2	0
statistic Scenario.UAV[29].wlan[0].radio 	bitErrorRate:histogram
field count 155
field mean 0.019354838709677
field stddev 0.13821532899065
field sum 3
field sqrsum 3
field min 0
field max 1
attr source  bitErrorRate
attr title  "Bit error rate, histogram"
bin	-INF	0
bin	-1	0
bin	0	152
bin	1	3
bin	2	0
statistic Scenario.UAV[29].wlan[0].radio 	packetErrorRate:histogram
field count 155
field mean 0.019354838709677
field stddev 0.13821532899065
field sum 3
field sqrsum 3
field min 0
field max 1
attr source  packetErrorRate
attr title  "Packet error rate, histogram"
bin	-INF	0
bin	-1	0
bin	0	152
bin	1	3
bin	2	0
statistic Scenario.UAV[29].wlan[0].radio 	minSNIR:histogram
field count 155
field mean nan
field stddev nan
field sum nan
field sqrsum nan
field min nan
field max nan
attr source  minSNIR
attr title  "Min SNIR, histogram"
bin	-INF	155
bin	nan	0
bin	nan	0
bin	nan	0
bin	nan	0
bin	nan	0
bin	nan	0
bin	nan	0
bin	nan	0
bin	nan	0
bin	nan	0
bin	nan	0
bin	nan	0
bin	nan	0
bin	nan	0
bin	nan	0
bin	nan	0
bin	nan	0
bin	nan	0
bin	nan	0
bin	nan	0
bin	nan	0
bin	nan	0
bin	nan	0
bin	nan	0
bin	nan	0
bin	nan	0
bin	nan	0
bin	nan	0
bin	nan	0
bin	nan	0
bin	nan	0
scalar Scenario.UAV[29].wlan[0].radio 	transmissionState:count 	17
attr interpolationmode  sample-hold
attr source  transmissionStateChanged
attr title  "Radio transmission state, count"
scalar Scenario.UAV[29].wlan[0].radio 	receptionState:count 	311
attr interpolationmode  sample-hold
attr source  receptionStateChanged
attr title  "Radio reception state, count"
scalar Scenario.UAV[29].wlan[0].radio 	radioMode:count 	2
attr interpolationmode  sample-hold
attr source  radioModeChanged
attr title  "Radio mode, count"
scalar Scenario.UAV[29].udpApp[0] 	"packets sent" 	5
scalar Scenario.UAV[29].udpApp[0] 	"packets received" 	0
scalar Scenario.UAV[29].udpApp[0] 	sentPk:count 	5
attr interpolationmode  none
attr source  sentPk
attr title  "packets sent, count"
scalar Scenario.UAV[29].udpApp[0] 	sentPk:sum(packetBytes) 	500
attr interpolationmode  none
attr source  sentPk
attr title  "packets sent, sum(packetBytes)"
scalar Scenario.UAV[29].udpApp[0] 	rcvdPk:count 	0
attr interpolationmode  none
attr source  rcvdPk
attr title  "packets received, count"
scalar Scenario.UAV[29].udpApp[0] 	rcvdPk:sum(packetBytes) 	0
attr interpolationmode  none
attr source  rcvdPk
attr title  "packets received, sum(packetBytes)"
statistic Scenario.UAV[29].udpApp[0] 	rcvdPkLifetime:stats
field count 0
field mean nan
field stddev nan
field sum 0
field sqrsum 0
field min nan
field max nan
attr interpolationmode  none
attr source  messageAge(rcvdPk)
attr title  "received packet lifetime, stats"
attr unit  s
scalar Scenario.UAV[29].udp 	droppedPkBadChecksum:count 	0
attr interpolationmode  none
attr title  "packets dropped (checksum error), count"
scalar Scenario.UAV[29].udp 	droppedPkWrongPort:count 	0
attr interpolationmode  none
attr title  "packets dropped (wrong port), count"
scalar Scenario.UAV[29].udp 	passedUpPk:count 	0
attr interpolationmode  none
attr title  "packets passed up, count"
scalar Scenario.UAV[29].udp 	sentPk:count 	5
attr interpolationmode  none
attr source  sentPk
attr title  "packets sent, count"
scalar Scenario.UAV[29].udp 	sentPk:sum(packetBytes) 	540
attr interpolationmode  none
attr source  sentPk
attr title  "packets sent, sum(packetBytes)"
scalar Scenario.UAV[29].udp 	rcvdPk:count 	0
attr interpolationmode  none
attr source  rcvdPk
attr title  "packets received, count"
scalar Scenario.UAV[29].udp 	rcvdPk:sum(packetBytes) 	0
attr interpolationmode  none
attr source  rcvdPk
attr title  "packets received, sum(packetBytes)"
scalar Scenario.Gsc[0].networkLayer.arp 	sentReply:count 	30
attr title  "ARP replies sent, count"
scalar Scenario.Gsc[0].networkLayer.arp 	sentReq:count 	0
attr title  "ARP request sent, count"
scalar Scenario.Gsc[0].networkLayer.arp 	failedARPResolution:count 	0
attr title  "ARP failed resolutions, count"
scalar Scenario.Gsc[0].networkLayer.arp 	completedARPResolution:count 	30
attr title  "ARP completed resolutions, count"
scalar Scenario.Gsc[0].networkLayer.arp 	initiatedARPResolution:count 	0
attr title  "ARP initiated resolutions, count"
scalar Scenario.Gsc[0].lo0.lo 	droppedPkBitError:count 	0
attr interpolationmode  none
attr source  dropPkBitError
attr title  "packets dropped/bit error, count"
scalar Scenario.Gsc[0].lo0.lo 	droppedPkBitError:sum(packetBytes) 	0
attr interpolationmode  none
attr source  dropPkBitError
attr title  "packets dropped/bit error, sum(packetBytes)"
scalar Scenario.Gsc[0].lo0.lo 	rcvdPkFromHL:count 	0
attr interpolationmode  none
attr source  packetReceivedFromUpper
attr title  "packets received from higher layer, count"
scalar Scenario.Gsc[0].lo0.lo 	rcvdPkFromHL:sum(packetBytes) 	0
attr interpolationmode  none
attr source  packetReceivedFromUpper
attr title  "packets received from higher layer, sum(packetBytes)"
scalar Scenario.Gsc[0].lo0.lo 	passedUpPk:count 	0
attr interpolationmode  none
attr source  packetSentToUpper
attr title  "packets passed to higher layer, count"
scalar Scenario.Gsc[0].lo0.lo 	passedUpPk:sum(packetBytes) 	0
attr interpolationmode  none
attr source  packetSentToUpper
attr title  "packets passed to higher layer, sum(packetBytes)"
scalar Scenario.Gsc[0].wlan[0].queue 	queueLength:max 	0
attr interpolationmode  sample-hold
attr title  "queue length, max"
scalar Scenario.Gsc[0].wlan[0].queue 	queueLength:timeavg 	0
attr interpolationmode  sample-hold
attr title  "queue length, timeavg"
statistic Scenario.Gsc[0].wlan[0].queue 	queueingTime:histogram
field count 30
field mean 0
field stddev 0
field sum 0
field sqrsum 0
field min 0
field max 0
attr interpolationmode  none
attr title  "queueing time, histogram"
bin	-INF	0
bin	-0.5	0
bin	-0.46666666666667	0
bin	-0.43333333333333	0
bin	-0.4	0
bin	-0.36666666666667	0
bin	-0.33333333333333	0
bin	-0.3	0
bin	-0.26666666666667	0
bin	-0.23333333333333	0
bin	-0.2	0
bin	-0.16666666666667	0
bin	-0.13333333333333	0
bin	-0.1	0
bin	-0.066666666666667	0
bin	-0.033333333333333	0
bin	-6.9388939039072e-018	30
bin	0.033333333333333	0
bin	0.066666666666667	0
bin	0.1	0
bin	0.13333333333333	0
bin	0.16666666666667	0
bin	0.2	0
bin	0.23333333333333	0
bin	0.26666666666667	0
bin	0.3	0
bin	0.33333333333333	0
bin	0.36666666666667	0
bin	0.4	0
bin	0.43333333333333	0
bin	0.46666666666667	0
bin	0.5	0
scalar Scenario.Gsc[0].wlan[0].queue 	dropPk:count 	0
attr interpolationmode  none
attr source  dropPkByQueue
attr title  "dropped packets, count"
scalar Scenario.Gsc[0].wlan[0].queue 	dropPk:sum(packetBytes) 	0
attr interpolationmode  none
attr source  dropPkByQueue
attr title  "dropped packets, sum(packetBytes)"
scalar Scenario.Gsc[0].wlan[0].queue 	rcvdPk:count 	30
attr interpolationmode  none
attr title  "received packets, count"
scalar Scenario.Gsc[0].wlan[0].queue 	rcvdPk:sum(packetBytes) 	840
attr interpolationmode  none
attr title  "received packets, sum(packetBytes)"
scalar Scenario.Gsc[0].wlan[0].mac 	droppedPkNotForUs:count 	0
attr interpolationmode  none
attr source  dropPkNotForUs
attr title  "packets dropped/not for us, count"
scalar Scenario.Gsc[0].wlan[0].mac 	droppedPkNotForUs:sum(packetBytes) 	0
attr interpolationmode  none
attr source  dropPkNotForUs
attr title  "packets dropped/not for us, sum(packetBytes)"
scalar Scenario.Gsc[0].wlan[0].mac 	rcvdPkFromHL:count 	30
attr interpolationmode  none
attr source  packetReceivedFromUpper
attr title  "packets received from higher layer, count"
scalar Scenario.Gsc[0].wlan[0].mac 	rcvdPkFromHL:sum(packetBytes) 	840
attr interpolationmode  none
attr source  packetReceivedFromUpper
attr title  "packets received from higher layer, sum(packetBytes)"
scalar Scenario.Gsc[0].wlan[0].mac 	passedUpPk:count 	137
attr interpolationmode  none
attr source  packetSentToUpper
attr title  "packets passed to higher layer, count"
scalar Scenario.Gsc[0].wlan[0].mac 	passedUpPk:sum(packetBytes) 	14536
attr interpolationmode  none
attr source  packetSentToUpper
attr title  "packets passed to higher layer, sum(packetBytes)"
scalar Scenario.Gsc[0].wlan[0].mac 	rcvdPkFromLL:count 	137
attr interpolationmode  none
attr source  packetReceivedFromLower
attr title  "packets received from lower layer, count"
scalar Scenario.Gsc[0].wlan[0].mac 	rcvdPkFromLL:sum(packetBytes) 	17276
attr interpolationmode  none
attr source  packetReceivedFromLower
attr title  "packets received from lower layer, sum(packetBytes)"
scalar Scenario.Gsc[0].wlan[0].mac 	sentDownPk:count 	30
attr interpolationmode  none
attr source  packetSentToLower
attr title  "packets sent to lower layer, count"
scalar Scenario.Gsc[0].wlan[0].mac 	sentDownPk:sum(packetBytes) 	1440
attr interpolationmode  none
attr source  packetSentToLower
attr title  "packets sent to lower layer, sum(packetBytes)"
statistic Scenario.Gsc[0].wlan[0].radio 	symbolErrorRate:histogram
field count 137
field mean 0.021897810218978
field stddev 0.14688697559045
field sum 3
field sqrsum 3
field min 0
field max 1
attr source  symbolErrorRate
attr title  "Symbol error rate, histogram"
bin	-INF	0
bin	-1	0
bin	0	134
bin	1	3
bin	2	0
statistic Scenario.Gsc[0].wlan[0].radio 	bitErrorRate:histogram
field count 137
field mean 0.021897810218978
field stddev 0.14688697559045
field sum 3
field sqrsum 3
field min 0
field max 1
attr source  bitErrorRate
attr title  "Bit error rate, histogram"
bin	-INF	0
bin	-1	0
bin	0	134
bin	1	3
bin	2	0
statistic Scenario.Gsc[0].wlan[0].radio 	packetErrorRate:histogram
field count 137
field mean 0.021897810218978
field stddev 0.14688697559045
field sum 3
field sqrsum 3
field min 0
field max 1
attr source  packetErrorRate
attr title  "Packet error rate, histogram"
bin	-INF	0
bin	-1	0
bin	0	134
bin	1	3
bin	2	0
statistic Scenario.Gsc[0].wlan[0].radio 	minSNIR:histogram
field count 137
field mean nan
field stddev nan
field sum nan
field sqrsum nan
field min nan
field max nan
attr source  minSNIR
attr title  "Min SNIR, histogram"
bin	-INF	137
bin	nan	0
bin	nan	0
bin	nan	0
bin	nan	0
bin	nan	0
bin	nan	0
bin	nan	0
bin	nan	0
bin	nan	0
bin	nan	0
bin	nan	0
bin	nan	0
bin	nan	0
bin	nan	0
bin	nan	0
bin	nan	0
bin	nan	0
bin	nan	0
bin	nan	0
bin	nan	0
bin	nan	0
bin	nan	0
bin	nan	0
bin	nan	0
bin	nan	0
bin	nan	0
bin	nan	0
bin	nan	0
bin	nan	0
bin	nan	0
bin	nan	0
scalar Scenario.Gsc[0].wlan[0].radio 	transmissionState:count 	61
attr interpolationmode  sample-hold
attr source  transmissionStateChanged
attr title  "Radio transmission state, count"
scalar Scenario.Gsc[0].wlan[0].radio 	receptionState:count 	275
attr interpolationmode  sample-hold
attr source  receptionStateChanged
attr title  "Radio reception state, count"
scalar Scenario.Gsc[0].wlan[0].radio 	radioMode:count 	2
attr interpolationmode  sample-hold
attr source  radioModeChanged
attr title  "Radio mode, count"
scalar Scenario.Gsc[0].udpApp[0] 	"packets sent" 	0
scalar Scenario.Gsc[0].udpApp[0] 	"packets received" 	107
scalar Scenario.Gsc[0].udpApp[0] 	sentPk:count 	0
attr interpolationmode  none
attr source  sentPk
attr title  "packets sent, count"
scalar Scenario.Gsc[0].udpApp[0] 	sentPk:sum(packetBytes) 	0
attr interpolationmode  none
attr source  sentPk
attr title  "packets sent, sum(packetBytes)"
scalar Scenario.Gsc[0].udpApp[0] 	rcvdPk:count 	107
attr interpolationmode  none
attr source  rcvdPk
attr title  "packets received, count"
scalar Scenario.Gsc[0].udpApp[0] 	rcvdPk:sum(packetBytes) 	10700
attr interpolationmode  none
attr source  rcvdPk
attr title  "packets received, sum(packetBytes)"
statistic Scenario.Gsc[0].udpApp[0] 	rcvdPkLifetime:stats
field count 107
field mean 0.02874037626528
field stddev 0.21538865447421
field sum 3.075220260385
field sqrsum 5.0059638698606
field min 0.000592632473
field max 2.000984596474
attr interpolationmode  none
attr source  messageAge(rcvdPk)
attr title  "received packet lifetime, stats"
attr unit  s
scalar Scenario.Gsc[0].udp 	droppedPkBadChecksum:count 	0
attr interpolationmode  none
attr title  "packets dropped (checksum error), count"
scalar Scenario.Gsc[0].udp 	droppedPkWrongPort:count 	0
attr interpolationmode  none
attr title  "packets dropped (wrong port), count"
scalar Scenario.Gsc[0].udp 	passedUpPk:count 	107
attr interpolationmode  none
attr title  "packets passed up, count"
scalar Scenario.Gsc[0].udp 	sentPk:count 	0
attr interpolationmode  none
attr source  sentPk
attr title  "packets sent, count"
scalar Scenario.Gsc[0].udp 	sentPk:sum(packetBytes) 	0
attr interpolationmode  none
attr source  sentPk
attr title  "packets sent, sum(packetBytes)"
scalar Scenario.Gsc[0].udp 	rcvdPk:count 	107
attr interpolationmode  none
attr source  rcvdPk
attr title  "packets received, count"
scalar Scenario.Gsc[0].udp 	rcvdPk:sum(packetBytes) 	11556
attr interpolationmode  none
attr source  rcvdPk
attr title  "packets received, sum(packetBytes)"
